
  -OEChem-06092216122D

 27 29  0     0  0  0  0  0  0999 V2000
   -4.1250   -6.1875    0.0000 C   0  0  0  0  0  0  0  0  0  0  0  0
   -4.1250   -7.0125    0.0000 C   0  0  0  0  0  0  0  0  0  0  0  0
   -2.7010   -6.1875    0.0000 C   0  0  0  0  0  0  0  0  0  0  0  0
   -3.4130   -5.7708    0.0000 N   0  0  0  0  0  0  0  0  0  0  0  0
   -2.7010   -7.0125    0.0000 C   0  0  0  0  0  0  0  0  0  0  0  0
   -3.4127   -7.4213    0.0000 N   0  0  0  0  0  0  0  0  0  0  0  0
   -1.9830   -7.4295    0.0000 C   0  0  0  0  0  0  0  0  0  0  0  0
   -1.9859   -8.2555    0.0000 C   0  0  0  0  0  0  0  0  0  0  0  0
   -1.2760   -8.6687    0.0000 C   0  0  0  0  0  0  0  0  0  0  0  0
   -0.5587   -8.2605    0.0000 C   0  0  0  0  0  0  0  0  0  0  0  0
   -0.5557   -7.4345    0.0000 C   0  0  0  0  0  0  0  0  0  0  0  0
   -1.2702   -7.0168    0.0000 C   0  0  0  0  0  0  0  0  0  0  0  0
   -3.4130   -4.9458    0.0000 C   0  0  0  0  0  0  0  0  0  0  0  0
   -1.9853   -5.7771    0.0000 O   0  0  0  0  0  0  0  0  0  0  0  0
   -4.8389   -7.4259    0.0000 N   0  0  0  0  0  0  0  0  0  0  0  0
    0.1606   -7.0253    0.0000 N   0  0  0  0  0  0  0  0  0  0  0  0
    0.8732   -7.4410    0.0000 C   0  0  0  0  0  0  0  0  0  0  0  0
    1.5895   -7.0318    0.0000 C   0  0  0  0  0  0  0  0  0  0  0  0
    0.8694   -8.2660    0.0000 O   0  0  0  0  0  0  0  0  0  0  0  0
    2.3023   -7.4525    0.0000 C   0  0  0  0  0  0  0  0  0  0  0  0
    3.0165   -7.0467    0.0000 C   0  0  0  0  0  0  0  0  0  0  0  0
    3.0245   -6.2214    0.0000 C   0  0  0  0  0  0  0  0  0  0  0  0
    2.3121   -5.8035    0.0000 C   0  0  0  0  0  0  0  0  0  0  0  0
    1.5916   -6.2109    0.0000 N   0  0  0  0  0  0  0  0  0  0  0  0
   -1.9917   -6.5958    0.0000 C   0  0  0  0  0  0  0  0  0  0  0  0
    3.7404   -5.8130    0.0000 C   0  0  0  0  0  0  0  0  0  0  0  0
    4.4583   -5.4064    0.0000 N   0  0  0  0  0  0  0  0  0  0  0  0
  4 13  1  0  0  0  0
  7  8  2  0  0  0  0
  3 14  2  0  0  0  0
  1  4  1  0  0  0  0
  2 15  1  0  0  0  0
  2  6  2  0  0  0  0
 11 16  1  0  0  0  0
  3  5  1  0  0  0  0
 16 17  1  0  0  0  0
  3  4  1  0  0  0  0
 17 18  1  0  0  0  0
  5  6  1  0  0  0  0
 17 19  2  0  0  0  0
 18 20  2  0  0  0  0
  7 12  1  0  0  0  0
  8  9  1  0  0  0  0
  9 10  2  0  0  0  0
 10 11  1  0  0  0  0
 18 24  1  0  0  0  0
 20 21  1  0  0  0  0
 21 22  2  0  0  0  0
 22 23  1  0  0  0  0
 23 24  2  0  0  0  0
 11 12  2  0  0  0  0
  5 25  1  0  0  0  0
  5  7  1  0  0  0  0
  1  2  1  0  0  0  0
 26 27  3  0  0  0  0
 22 26  1  0  0  0  0
M  END
> <MoleculeName>
CHEMBL1923294

> <pCHEMBL>
6.09

> <AssayDescription>
Inhibition of human recombinant BACE1 using fluorescent Mca-Ser-Glu-Val-Asn-Leu-Asp-Ala-Glu-Phe-Lys(Dnp)-OH peptide as substrate after 1 hr by spectroflurorimeter analysis

> <PubmedId>
22071305

> <DocumentType>
PUBLICATION

> <TargetName>
Beta-secretase 1

> <TargetChemblId>
CHEMBL4822

> <TargetOrganism>
Homo sapiens

> <TargetComponentGenes>
BACE1

> <PDB>
3u6a

> <Order>
482

> <spe_1>
-0.4342161

> <spe_2>
1.134366

> <Scaffold>
3

$$$$
