
  -OEChem-06092216122D

 30 32  0     1  0  0  0  0  0999 V2000
   30.8428   -3.8301    0.0000 C   0  0  3  0  0  0  0  0  0  0  0  0
   31.5485   -3.4173    0.0000 C   0  0  0  0  0  0  0  0  0  0  0  0
   31.5440   -2.6043    0.0000 C   0  0  0  0  0  0  0  0  0  0  0  0
   30.8353   -2.1978    0.0000 O   0  0  0  0  0  0  0  0  0  0  0  0
   30.1296   -2.6105    0.0000 C   0  0  0  0  0  0  0  0  0  0  0  0
   30.1325   -3.4297    0.0000 N   0  0  0  0  0  0  0  0  0  0  0  0
   25.1912   -3.0293    0.0000 C   0  0  0  0  0  0  0  0  0  0  0  0
   25.1900   -3.8489    0.0000 C   0  0  0  0  0  0  0  0  0  0  0  0
   25.8981   -4.2578    0.0000 C   0  0  0  0  0  0  0  0  0  0  0  0
   26.6077   -3.8484    0.0000 C   0  0  0  0  0  0  0  0  0  0  0  0
   26.6049   -3.0257    0.0000 N   0  0  0  0  0  0  0  0  0  0  0  0
   25.8963   -2.6205    0.0000 C   0  0  0  0  0  0  0  0  0  0  0  0
   24.4800   -2.6191    0.0000 C   0  0  0  0  0  0  0  0  0  0  0  0
   23.7722   -2.2107    0.0000 N   0  0  0  0  0  0  0  0  0  0  0  0
   27.3161   -4.2559    0.0000 C   0  0  0  0  0  0  0  0  0  0  0  0
   27.3174   -5.0731    0.0000 O   0  0  0  0  0  0  0  0  0  0  0  0
   28.0232   -3.8462    0.0000 N   0  0  0  0  0  0  0  0  0  0  0  0
   28.7315   -4.2537    0.0000 C   0  0  0  0  0  0  0  0  0  0  0  0
   28.7282   -5.0693    0.0000 C   0  0  0  0  0  0  0  0  0  0  0  0
   29.4357   -5.4767    0.0000 C   0  0  0  0  0  0  0  0  0  0  0  0
   30.1437   -5.0670    0.0000 C   0  0  0  0  0  0  0  0  0  0  0  0
   30.1398   -4.2455    0.0000 C   0  0  0  0  0  0  0  0  0  0  0  0
   29.4317   -3.8418    0.0000 C   0  0  0  0  0  0  0  0  0  0  0  0
   30.8526   -5.4735    0.0000 F   0  0  0  0  0  0  0  0  0  0  0  0
   29.4200   -2.2052    0.0000 N   0  0  0  0  0  0  0  0  0  0  0  0
   31.5485   -4.2387    0.0000 C   0  0  0  0  0  0  0  0  0  0  0  0
   32.2500   -2.1927    0.0000 C   0  0  0  0  0  0  0  0  0  0  0  0
   32.9594   -2.5984    0.0000 F   0  0  0  0  0  0  0  0  0  0  0  0
   32.2466   -1.3756    0.0000 F   0  0  0  0  0  0  0  0  0  0  0  0
   25.8979   -5.0750    0.0000 C   0  0  0  0  0  0  0  0  0  0  0  0
  1  2  1  0  0  0  0
  1  6  1  0  0  0  0
  2  3  2  0  0  0  0
  3  4  1  0  0  0  0
  4  5  1  0  0  0  0
  5  6  2  0  0  0  0
  7  8  2  0  0  0  0
  8  9  1  0  0  0  0
  9 10  2  0  0  0  0
 10 11  1  0  0  0  0
 11 12  2  0  0  0  0
  7 12  1  0  0  0  0
 13 14  3  0  0  0  0
  7 13  1  0  0  0  0
 10 15  1  0  0  0  0
 15 16  2  0  0  0  0
 15 17  1  0  0  0  0
 17 18  1  0  0  0  0
 18 19  2  0  0  0  0
 19 20  1  0  0  0  0
 20 21  2  0  0  0  0
 21 22  1  0  0  0  0
 22 23  2  0  0  0  0
 18 23  1  0  0  0  0
 21 24  1  0  0  0  0
  1 22  1  0  0  0  0
  5 25  1  0  0  0  0
  1 26  1  6  0  0  0
  3 27  1  0  0  0  0
 27 28  1  0  0  0  0
 27 29  1  0  0  0  0
  9 30  1  0  0  0  0
M  END
> <MoleculeName>
CHEMBL4216412

> <pCHEMBL>
7.19

> <AssayDescription>
Inhibition of human recombinant BACE1 (43 to 545 residues) expressed in Escherichia coli BL21(DE3) using APP Swedish Lys-Met/Asn-Leu mutant as substrate incubated for 3 hrs by HTRF assay

> <PubmedId>
29733614

> <DocumentType>
PUBLICATION

> <TargetName>
Beta-secretase 1

> <TargetChemblId>
CHEMBL4822

> <TargetOrganism>
Homo sapiens

> <TargetComponentGenes>
BACE1

> <PDB>
7d2x

> <Order>
2032

> <spe_1>
1.056773

> <spe_2>
-0.03764676

> <Scaffold>
5

$$$$
