
  -OEChem-06092216122D

 26 28  0     0  0  0  0  0  0999 V2000
   16.5833   -6.0625    0.0000 C   0  0  0  0  0  0  0  0  0  0  0  0
   16.5833   -6.8875    0.0000 C   0  0  0  0  0  0  0  0  0  0  0  0
   18.0074   -6.0625    0.0000 C   0  0  0  0  0  0  0  0  0  0  0  0
   17.2954   -5.6458    0.0000 N   0  0  0  0  0  0  0  0  0  0  0  0
   18.0074   -6.8875    0.0000 C   0  0  0  0  0  0  0  0  0  0  0  0
   17.3268   -7.2963    0.0000 N   0  0  0  0  0  0  0  0  0  0  0  0
   18.7253   -7.3045    0.0000 C   0  0  0  0  0  0  0  0  0  0  0  0
   18.7224   -8.1305    0.0000 C   0  0  0  0  0  0  0  0  0  0  0  0
   19.4323   -8.5437    0.0000 C   0  0  0  0  0  0  0  0  0  0  0  0
   20.1497   -8.1355    0.0000 C   0  0  0  0  0  0  0  0  0  0  0  0
   20.1526   -7.3095    0.0000 C   0  0  0  0  0  0  0  0  0  0  0  0
   19.4381   -6.8918    0.0000 C   0  0  0  0  0  0  0  0  0  0  0  0
   17.2954   -4.8208    0.0000 C   0  0  0  0  0  0  0  0  0  0  0  0
   18.7230   -5.6521    0.0000 O   0  0  0  0  0  0  0  0  0  0  0  0
   15.8694   -7.3009    0.0000 N   0  0  0  0  0  0  0  0  0  0  0  0
   20.8689   -6.9003    0.0000 N   0  0  0  0  0  0  0  0  0  0  0  0
   21.5815   -7.3160    0.0000 C   0  0  0  0  0  0  0  0  0  0  0  0
   22.2979   -6.9068    0.0000 C   0  0  0  0  0  0  0  0  0  0  0  0
   21.5778   -8.1410    0.0000 O   0  0  0  0  0  0  0  0  0  0  0  0
   23.0106   -7.3275    0.0000 C   0  0  0  0  0  0  0  0  0  0  0  0
   23.7248   -6.9217    0.0000 N   0  0  0  0  0  0  0  0  0  0  0  0
   23.7328   -6.0964    0.0000 C   0  0  0  0  0  0  0  0  0  0  0  0
   23.0204   -5.6785    0.0000 C   0  0  0  0  0  0  0  0  0  0  0  0
   22.3000   -6.0546    0.0000 N   0  0  0  0  0  0  0  0  0  0  0  0
   18.7167   -6.4708    0.0000 C   0  0  0  0  0  0  0  0  0  0  0  0
   24.4507   -5.6899    0.0000 C   0  0  0  0  0  0  0  0  0  0  0  0
  1  2  1  0  0  0  0
  4 13  1  0  0  0  0
  7  8  2  0  0  0  0
  3 14  2  0  0  0  0
  1  4  1  0  0  0  0
  2 15  1  0  0  0  0
  2  6  2  0  0  0  0
 11 16  1  0  0  0  0
  3  5  1  0  0  0  0
 16 17  1  0  0  0  0
  3  4  1  0  0  0  0
 17 18  1  0  0  0  0
  5  6  1  0  0  0  0
 17 19  2  0  0  0  0
 18 20  2  0  0  0  0
  7 12  1  0  0  0  0
  8  9  1  0  0  0  0
  9 10  2  0  0  0  0
 10 11  1  0  0  0  0
 18 24  1  0  0  0  0
 20 21  1  0  0  0  0
 21 22  2  0  0  0  0
 22 23  1  0  0  0  0
 23 24  2  0  0  0  0
 11 12  2  0  0  0  0
  5 25  1  0  0  0  0
  5  7  1  0  0  0  0
 22 26  1  0  0  0  0
M  END
> <MoleculeName>
CHEMBL1923296

> <pCHEMBL>
5.15

> <AssayDescription>
Inhibition of human recombinant BACE1 using fluorescent Mca-Ser-Glu-Val-Asn-Leu-Asp-Ala-Glu-Phe-Lys(Dnp)-OH peptide as substrate after 1 hr by spectroflurorimeter analysis

> <PubmedId>
22071305

> <DocumentType>
PUBLICATION

> <TargetName>
Beta-secretase 1

> <TargetChemblId>
CHEMBL4822

> <TargetOrganism>
Homo sapiens

> <TargetComponentGenes>
BACE1

> <PDB>
3u6a

> <Order>
485

> <spe_1>
-0.2803137

> <spe_2>
1.157347

> <Scaffold>
3

$$$$
