
  -OEChem-06092216122D

 27 29  0     0  0  0  0  0  0999 V2000
   -2.8833  -21.6375    0.0000 C   0  0  0  0  0  0  0  0  0  0  0  0
   -2.8833  -22.4625    0.0000 C   0  0  0  0  0  0  0  0  0  0  0  0
   -1.4593  -21.6375    0.0000 C   0  0  0  0  0  0  0  0  0  0  0  0
   -2.1713  -21.2208    0.0000 N   0  0  0  0  0  0  0  0  0  0  0  0
   -1.4593  -22.4625    0.0000 C   0  0  0  0  0  0  0  0  0  0  0  0
   -2.1711  -22.8713    0.0000 N   0  0  0  0  0  0  0  0  0  0  0  0
   -0.7413  -22.8795    0.0000 C   0  0  0  0  0  0  0  0  0  0  0  0
   -0.7443  -23.7055    0.0000 C   0  0  0  0  0  0  0  0  0  0  0  0
   -0.0344  -24.1187    0.0000 C   0  0  0  0  0  0  0  0  0  0  0  0
    0.6830  -23.7105    0.0000 C   0  0  0  0  0  0  0  0  0  0  0  0
    0.6859  -22.8845    0.0000 C   0  0  0  0  0  0  0  0  0  0  0  0
   -0.0285  -22.4668    0.0000 C   0  0  0  0  0  0  0  0  0  0  0  0
   -2.1713  -20.3958    0.0000 C   0  0  0  0  0  0  0  0  0  0  0  0
   -3.5973  -22.8759    0.0000 N   0  0  0  0  0  0  0  0  0  0  0  0
    1.4023  -22.4753    0.0000 N   0  0  0  0  0  0  0  0  0  0  0  0
    2.1149  -22.8910    0.0000 C   0  0  0  0  0  0  0  0  0  0  0  0
    2.8312  -22.4818    0.0000 C   0  0  0  0  0  0  0  0  0  0  0  0
    2.1111  -23.7160    0.0000 O   0  0  0  0  0  0  0  0  0  0  0  0
    3.5440  -22.9025    0.0000 C   0  0  0  0  0  0  0  0  0  0  0  0
    4.2581  -22.4967    0.0000 C   0  0  0  0  0  0  0  0  0  0  0  0
    4.2662  -21.6714    0.0000 C   0  0  0  0  0  0  0  0  0  0  0  0
    3.5537  -21.2535    0.0000 C   0  0  0  0  0  0  0  0  0  0  0  0
    2.8333  -21.6609    0.0000 N   0  0  0  0  0  0  0  0  0  0  0  0
   -0.7500  -22.0458    0.0000 C   0  0  0  0  0  0  0  0  0  0  0  0
    4.9840  -21.2649    0.0000 Cl  0  0  0  0  0  0  0  0  0  0  0  0
   -3.5990  -21.2271    0.0000 O   0  0  0  0  0  0  0  0  0  0  0  0
   -1.4602  -24.1154    0.0000 F   0  0  0  0  0  0  0  0  0  0  0  0
  4 13  1  0  0  0  0
  7  8  2  0  0  0  0
  2 14  1  0  0  0  0
  1  4  1  0  0  0  0
 11 15  1  0  0  0  0
  2  6  2  0  0  0  0
 15 16  1  0  0  0  0
  3  5  1  0  0  0  0
 16 17  1  0  0  0  0
  3  4  1  0  0  0  0
 16 18  2  0  0  0  0
 17 19  2  0  0  0  0
  5  6  1  0  0  0  0
  7 12  1  0  0  0  0
  8  9  1  0  0  0  0
  9 10  2  0  0  0  0
 17 23  1  0  0  0  0
 19 20  1  0  0  0  0
 20 21  2  0  0  0  0
 21 22  1  0  0  0  0
 22 23  2  0  0  0  0
 10 11  1  0  0  0  0
  5 24  1  0  0  0  0
 11 12  2  0  0  0  0
 21 25  1  0  0  0  0
  5  7  1  0  0  0  0
  1 26  2  0  0  0  0
  1  2  1  0  0  0  0
  8 27  1  0  0  0  0
M  END
> <MoleculeName>
CHEMBL1923297

> <pCHEMBL>
7.4

> <AssayDescription>
Inhibition of human recombinant BACE1 using fluorescent Mca-Ser-Glu-Val-Asn-Leu-Asp-Ala-Glu-Phe-Lys(Dnp)-OH peptide as substrate after 1 hr by spectroflurorimeter analysis

> <PubmedId>
22071305

> <DocumentType>
PUBLICATION

> <TargetName>
Beta-secretase 1

> <TargetChemblId>
CHEMBL4822

> <TargetOrganism>
Homo sapiens

> <TargetComponentGenes>
BACE1

> <PDB>
3u6a

> <Order>
534

> <spe_1>
0.07038515

> <spe_2>
0.6487864

> <Scaffold>
3

$$$$
