
  -OEChem-06092216122D

 27 29  0     1  0  0  0  0  0999 V2000
   22.8236  -10.4501    0.0000 C   0  0  3  0  0  0  0  0  0  0  0  0
   23.5293  -10.0374    0.0000 C   0  0  0  0  0  0  0  0  0  0  0  0
   23.5248   -9.2244    0.0000 C   0  0  0  0  0  0  0  0  0  0  0  0
   22.8161   -8.8179    0.0000 O   0  0  0  0  0  0  0  0  0  0  0  0
   22.1104   -9.2306    0.0000 C   0  0  0  0  0  0  0  0  0  0  0  0
   22.1133  -10.0498    0.0000 N   0  0  0  0  0  0  0  0  0  0  0  0
   18.5885  -10.4685    0.0000 C   0  0  0  0  0  0  0  0  0  0  0  0
   19.2969  -10.8760    0.0000 C   0  0  0  0  0  0  0  0  0  0  0  0
   19.2982  -11.6932    0.0000 O   0  0  0  0  0  0  0  0  0  0  0  0
   20.0040  -10.4663    0.0000 N   0  0  0  0  0  0  0  0  0  0  0  0
   20.7123  -10.8738    0.0000 C   0  0  0  0  0  0  0  0  0  0  0  0
   20.7090  -11.6894    0.0000 C   0  0  0  0  0  0  0  0  0  0  0  0
   21.4165  -12.0968    0.0000 C   0  0  0  0  0  0  0  0  0  0  0  0
   22.1245  -11.6870    0.0000 C   0  0  0  0  0  0  0  0  0  0  0  0
   22.1206  -10.8656    0.0000 C   0  0  0  0  0  0  0  0  0  0  0  0
   21.4125  -10.4619    0.0000 C   0  0  0  0  0  0  0  0  0  0  0  0
   22.8334  -12.0936    0.0000 F   0  0  0  0  0  0  0  0  0  0  0  0
   21.4008   -8.8252    0.0000 N   0  0  0  0  0  0  0  0  0  0  0  0
   23.5293  -10.8587    0.0000 C   0  0  0  0  0  0  0  0  0  0  0  0
   24.2308   -8.8128    0.0000 C   0  0  0  0  0  0  0  0  0  0  0  0
   24.9402   -9.2185    0.0000 F   0  0  0  0  0  0  0  0  0  0  0  0
   18.5003   -9.6601    0.0000 N   0  0  0  0  0  0  0  0  0  0  0  0
   17.7007   -9.4915    0.0000 C   0  0  0  0  0  0  0  0  0  0  0  0
   17.2932  -10.1999    0.0000 O   0  0  0  0  0  0  0  0  0  0  0  0
   17.8410  -10.8062    0.0000 C   0  0  0  0  0  0  0  0  0  0  0  0
   17.3671   -8.7455    0.0000 C   0  0  0  0  0  0  0  0  0  0  0  0
   17.8464   -8.0836    0.0000 F   0  0  0  0  0  0  0  0  0  0  0  0
  1  2  1  0  0  0  0
  1  6  1  0  0  0  0
  2  3  2  0  0  0  0
  3  4  1  0  0  0  0
  4  5  1  0  0  0  0
  5  6  2  0  0  0  0
  7  8  1  0  0  0  0
  8  9  2  0  0  0  0
  8 10  1  0  0  0  0
 10 11  1  0  0  0  0
 11 12  2  0  0  0  0
 12 13  1  0  0  0  0
 13 14  2  0  0  0  0
 14 15  1  0  0  0  0
 15 16  2  0  0  0  0
 11 16  1  0  0  0  0
 14 17  1  0  0  0  0
  1 15  1  0  0  0  0
  5 18  1  0  0  0  0
  1 19  1  6  0  0  0
  3 20  1  0  0  0  0
 20 21  1  0  0  0  0
  7 22  1  0  0  0  0
 22 23  2  0  0  0  0
 23 24  1  0  0  0  0
 24 25  1  0  0  0  0
  7 25  2  0  0  0  0
 23 26  1  0  0  0  0
 26 27  1  0  0  0  0
M  END
> <MoleculeName>
CHEMBL4207430

> <pCHEMBL>
7.32

> <AssayDescription>
Inhibition of human recombinant BACE1 (43 to 545 residues) expressed in Escherichia coli BL21(DE3) using APP Swedish Lys-Met/Asn-Leu mutant as substrate incubated for 3 hrs by HTRF assay

> <PubmedId>
29733614

> <DocumentType>
PUBLICATION

> <TargetName>
Beta-secretase 1

> <TargetChemblId>
CHEMBL4822

> <TargetOrganism>
Homo sapiens

> <TargetComponentGenes>
BACE1

> <PDB>
7d2x

> <Order>
2024

> <spe_1>
0.9055533

> <spe_2>
-0.4101746

> <Scaffold>
5

$$$$
