
  -OEChem-06092216122D

 38 43  0     1  0  0  0  0  0999 V2000
    7.0288  -26.2785    0.0000 C   0  0  0  0  0  0  0  0  0  0  0  0
    7.0277  -27.1062    0.0000 C   0  0  0  0  0  0  0  0  0  0  0  0
    7.7428  -27.5192    0.0000 N   0  0  0  0  0  0  0  0  0  0  0  0
    8.4595  -27.1058    0.0000 C   0  0  0  0  0  0  0  0  0  0  0  0
    8.4567  -26.2748    0.0000 N   0  0  0  0  0  0  0  0  0  0  0  0
    7.7410  -25.8655    0.0000 C   0  0  0  0  0  0  0  0  0  0  0  0
    5.6010  -26.2821    0.0000 C   0  0  0  0  0  0  0  0  0  0  0  0
    5.5998  -27.1099    0.0000 N   0  0  0  0  0  0  0  0  0  0  0  0
    6.3149  -27.5229    0.0000 C   0  0  0  0  0  0  0  0  0  0  0  0
    6.3131  -25.8691    0.0000 C   0  0  0  0  0  0  0  0  0  0  0  0
    4.1780  -23.8337    0.0000 C   0  0  0  0  0  0  0  0  0  0  0  0
    4.1769  -24.6613    0.0000 C   0  0  0  0  0  0  0  0  0  0  0  0
    4.8920  -25.0744    0.0000 C   0  0  0  0  0  0  0  0  0  0  0  0
    5.6087  -24.6608    0.0000 C   0  0  0  0  0  0  0  0  0  0  0  0
    5.6059  -23.8300    0.0000 C   0  0  0  0  0  0  0  0  0  0  0  0
    4.8902  -23.4207    0.0000 C   0  0  0  0  0  0  0  0  0  0  0  0
    8.5294  -24.7340    0.0000 C   0  0  0  0  0  0  0  0  0  0  0  0
    8.5468  -23.8923    0.0000 C   0  0  0  0  0  0  0  0  0  0  0  0
    7.8316  -23.4587    0.0000 N   0  0  0  0  0  0  0  0  0  0  0  0
    7.0907  -23.8622    0.0000 C   0  0  0  0  0  0  0  0  0  0  0  0
    6.3712  -23.4285    0.0000 C   0  0  0  0  0  0  0  0  0  0  0  0
    9.2085  -25.9413    0.0000 C   0  0  3  0  0  0  0  0  0  0  0  0
    9.2333  -25.1642    0.0000 C   0  0  0  0  0  0  0  0  0  0  0  0
    4.8859  -25.8585    0.0000 O   0  0  0  0  0  0  0  0  0  0  0  0
    9.2701  -23.4947    0.0000 O   0  0  0  0  0  0  0  0  0  0  0  0
    9.1750  -27.5172    0.0000 N   0  0  0  0  0  0  0  0  0  0  0  0
    9.8923  -26.3984    0.0000 C   0  0  0  0  0  0  0  0  0  0  0  0
    7.8507  -22.6335    0.0000 C   0  0  0  0  0  0  0  0  0  0  0  0
    8.5746  -22.2419    0.0000 C   0  0  0  0  0  0  0  0  0  0  0  0
    8.5956  -21.4204    0.0000 C   0  0  0  0  0  0  0  0  0  0  0  0
    7.8925  -20.9874    0.0000 C   0  0  0  0  0  0  0  0  0  0  0  0
    7.1666  -21.3822    0.0000 C   0  0  0  0  0  0  0  0  0  0  0  0
    7.1437  -22.2099    0.0000 C   0  0  0  0  0  0  0  0  0  0  0  0
    9.8997  -27.2177    0.0000 C   0  0  0  0  0  0  0  0  0  0  0  0
   10.6127  -27.6206    0.0000 C   0  0  0  0  0  0  0  0  0  0  0  0
   11.3226  -27.2044    0.0000 C   0  0  0  0  0  0  0  0  0  0  0  0
   11.3149  -26.3811    0.0000 C   0  0  0  0  0  0  0  0  0  0  0  0
   10.5973  -25.9737    0.0000 C   0  0  0  0  0  0  0  0  0  0  0  0
  1 10  1  0  0  0  0
  7 10  2  0  0  0  0
  2  3  1  0  0  0  0
  5  6  1  0  0  0  0
 17 18  1  0  0  0  0
 18 19  1  0  0  0  0
 19 20  1  0  0  0  0
 15 21  1  0  0  0  0
 20 21  1  0  0  0  0
  5 22  1  0  0  0  0
 17 23  1  0  0  0  0
 22 23  1  0  0  0  0
  7 24  1  0  0  0  0
 13 24  1  0  0  0  0
 11 12  2  0  0  0  0
 18 25  2  0  0  0  0
  1  6  1  0  0  0  0
  4 26  1  0  0  0  0
 12 13  1  0  0  0  0
 22 27  1  1  0  0  0
  1  2  2  0  0  0  0
 19 28  1  0  0  0  0
 28 29  1  0  0  0  0
 13 14  2  0  0  0  0
  3  4  2  0  0  0  0
 14 15  1  0  0  0  0
  7  8  1  0  0  0  0
 15 16  2  0  0  0  0
 28 33  1  0  0  0  0
 29 30  1  0  0  0  0
 30 31  1  0  0  0  0
 31 32  1  0  0  0  0
 32 33  1  0  0  0  0
 27 34  1  0  0  0  0
 11 16  1  0  0  0  0
  8  9  2  0  0  0  0
  2  9  1  0  0  0  0
  4  5  1  0  0  0  0
 27 38  1  0  0  0  0
 34 35  1  0  0  0  0
 35 36  1  0  0  0  0
 36 37  1  0  0  0  0
 37 38  1  0  0  0  0
M  END
> <MoleculeName>
CHEMBL1095431

> <pCHEMBL>
8.3

> <AssayDescription>
Inhibition of BACE1

> <PubmedId>
20399652

> <DocumentType>
PUBLICATION

> <TargetName>
Beta-secretase 1

> <TargetChemblId>
CHEMBL4822

> <TargetOrganism>
Homo sapiens

> <TargetComponentGenes>
BACE1

> <PDB>
2q15

> <Order>
2000

> <spe_1>
-1.444155

> <spe_2>
-0.600966

> <Scaffold>
2

$$$$
