
  -OEChem-06092216122D

 29 31  0     1  0  0  0  0  0999 V2000
   10.7308   -4.5111    0.0000 C   0  0  3  0  0  0  0  0  0  0  0  0
   11.4366   -4.0983    0.0000 C   0  0  0  0  0  0  0  0  0  0  0  0
   11.4320   -3.2853    0.0000 C   0  0  0  0  0  0  0  0  0  0  0  0
   10.7234   -2.8788    0.0000 O   0  0  0  0  0  0  0  0  0  0  0  0
   10.0176   -3.2915    0.0000 C   0  0  0  0  0  0  0  0  0  0  0  0
   10.0205   -4.1107    0.0000 N   0  0  0  0  0  0  0  0  0  0  0  0
    5.0792   -3.7103    0.0000 C   0  0  0  0  0  0  0  0  0  0  0  0
    5.0781   -4.5299    0.0000 N   0  0  0  0  0  0  0  0  0  0  0  0
    5.7861   -4.9388    0.0000 C   0  0  0  0  0  0  0  0  0  0  0  0
    6.4958   -4.5294    0.0000 C   0  0  0  0  0  0  0  0  0  0  0  0
    6.4929   -3.7067    0.0000 N   0  0  0  0  0  0  0  0  0  0  0  0
    5.7843   -3.3015    0.0000 C   0  0  0  0  0  0  0  0  0  0  0  0
    7.2041   -4.9369    0.0000 C   0  0  0  0  0  0  0  0  0  0  0  0
    7.2054   -5.7541    0.0000 O   0  0  0  0  0  0  0  0  0  0  0  0
    7.9112   -4.5272    0.0000 N   0  0  0  0  0  0  0  0  0  0  0  0
    8.6195   -4.9347    0.0000 C   0  0  0  0  0  0  0  0  0  0  0  0
    8.6162   -5.7503    0.0000 C   0  0  0  0  0  0  0  0  0  0  0  0
    9.3237   -6.1577    0.0000 C   0  0  0  0  0  0  0  0  0  0  0  0
   10.0317   -5.7480    0.0000 C   0  0  0  0  0  0  0  0  0  0  0  0
   10.0278   -4.9265    0.0000 C   0  0  0  0  0  0  0  0  0  0  0  0
    9.3197   -4.5228    0.0000 C   0  0  0  0  0  0  0  0  0  0  0  0
   10.7406   -6.1545    0.0000 F   0  0  0  0  0  0  0  0  0  0  0  0
    9.3080   -2.8861    0.0000 N   0  0  0  0  0  0  0  0  0  0  0  0
   11.4366   -4.9197    0.0000 C   0  0  0  0  0  0  0  0  0  0  0  0
   12.1380   -2.8737    0.0000 C   0  0  0  0  0  0  0  0  0  0  0  0
   12.8474   -3.2794    0.0000 F   0  0  0  0  0  0  0  0  0  0  0  0
    4.3714   -3.3019    0.0000 C   0  0  0  0  0  0  0  0  0  0  0  0
    4.3712   -2.4847    0.0000 F   0  0  0  0  0  0  0  0  0  0  0  0
    3.6638   -3.7107    0.0000 F   0  0  0  0  0  0  0  0  0  0  0  0
  1  2  1  0  0  0  0
  1  6  1  0  0  0  0
  2  3  2  0  0  0  0
  3  4  1  0  0  0  0
  4  5  1  0  0  0  0
  5  6  2  0  0  0  0
  7  8  2  0  0  0  0
  8  9  1  0  0  0  0
  9 10  2  0  0  0  0
 10 11  1  0  0  0  0
 11 12  2  0  0  0  0
  7 12  1  0  0  0  0
 10 13  1  0  0  0  0
 13 14  2  0  0  0  0
 13 15  1  0  0  0  0
 15 16  1  0  0  0  0
 16 17  2  0  0  0  0
 17 18  1  0  0  0  0
 18 19  2  0  0  0  0
 19 20  1  0  0  0  0
 20 21  2  0  0  0  0
 16 21  1  0  0  0  0
 19 22  1  0  0  0  0
  1 20  1  0  0  0  0
  5 23  1  0  0  0  0
  1 24  1  6  0  0  0
  3 25  1  0  0  0  0
 25 26  1  0  0  0  0
  7 27  1  0  0  0  0
 27 28  1  0  0  0  0
 27 29  1  0  0  0  0
M  END
> <MoleculeName>
CHEMBL4215276

> <pCHEMBL>
6.5

> <AssayDescription>
Inhibition of human recombinant BACE1 (43 to 545 residues) expressed in Escherichia coli BL21(DE3) using APP Swedish Lys-Met/Asn-Leu mutant as substrate incubated for 3 hrs by HTRF assay

> <PubmedId>
29733614

> <DocumentType>
PUBLICATION

> <TargetName>
Beta-secretase 1

> <TargetChemblId>
CHEMBL4822

> <TargetOrganism>
Homo sapiens

> <TargetComponentGenes>
BACE1

> <PDB>
7d2x

> <Order>
2031

> <spe_1>
0.7718953

> <spe_2>
-0.4348692

> <Scaffold>
5

$$$$
