
  -OEChem-06092216122D

 35 39  0     0  0  0  0  0  0999 V2000
   12.6319   -1.0166    0.0000 C   0  0  0  0  0  0  0  0  0  0  0  0
   12.6307   -1.8440    0.0000 C   0  0  0  0  0  0  0  0  0  0  0  0
   13.3456   -2.2569    0.0000 C   0  0  0  0  0  0  0  0  0  0  0  0
   13.3438   -0.6039    0.0000 C   0  0  0  0  0  0  0  0  0  0  0  0
   14.0591   -1.0130    0.0000 C   0  0  0  0  0  0  0  0  0  0  0  0
   14.0599   -1.8398    0.0000 C   0  0  0  0  0  0  0  0  0  0  0  0
   14.7752   -2.2508    0.0000 N   0  0  0  0  0  0  0  0  0  0  0  0
   15.4902   -1.8360    0.0000 C   0  0  0  0  0  0  0  0  0  0  0  0
   15.4855   -1.0061    0.0000 N   0  0  0  0  0  0  0  0  0  0  0  0
   14.7696   -0.5988    0.0000 C   0  0  0  0  0  0  0  0  0  0  0  0
   16.1974   -0.5892    0.0000 C   0  0  0  0  0  0  0  0  0  0  0  0
   16.2063   -2.2458    0.0000 N   0  0  0  0  0  0  0  0  0  0  0  0
   11.9173   -0.6043    0.0000 O   0  0  0  0  0  0  0  0  0  0  0  0
   11.2030   -1.0170    0.0000 C   0  0  0  0  0  0  0  0  0  0  0  0
   10.4885   -0.6029    0.0000 C   0  0  0  0  0  0  0  0  0  0  0  0
    9.7746   -1.0149    0.0000 C   0  0  0  0  0  0  0  0  0  0  0  0
    9.7744   -1.8408    0.0000 C   0  0  0  0  0  0  0  0  0  0  0  0
   10.4940   -2.2529    0.0000 C   0  0  0  0  0  0  0  0  0  0  0  0
   11.2049   -1.8386    0.0000 C   0  0  0  0  0  0  0  0  0  0  0  0
   16.1924    0.2358    0.0000 C   0  0  0  0  0  0  0  0  0  0  0  0
   16.9055    0.6493    0.0000 C   0  0  0  0  0  0  0  0  0  0  0  0
   16.9009    1.4735    0.0000 C   0  0  0  0  0  0  0  0  0  0  0  0
   16.1834    1.8824    0.0000 C   0  0  0  0  0  0  0  0  0  0  0  0
   15.4691    1.4612    0.0000 C   0  0  0  0  0  0  0  0  0  0  0  0
   15.4773    0.6383    0.0000 C   0  0  0  0  0  0  0  0  0  0  0  0
   14.7507    1.8668    0.0000 C   0  0  0  0  0  0  0  0  0  0  0  0
   14.7427    2.6917    0.0000 O   0  0  0  0  0  0  0  0  0  0  0  0
   14.0402    1.4474    0.0000 N   0  0  0  0  0  0  0  0  0  0  0  0
   13.3218    1.8530    0.0000 C   0  0  0  0  0  0  0  0  0  0  0  0
   13.3123    2.6777    0.0000 C   0  0  0  0  0  0  0  0  0  0  0  0
   12.5980    3.0833    0.0000 C   0  0  0  0  0  0  0  0  0  0  0  0
   11.8851    2.6674    0.0000 C   0  0  0  0  0  0  0  0  0  0  0  0
   11.8911    1.8415    0.0000 C   0  0  0  0  0  0  0  0  0  0  0  0
   12.6100    1.4314    0.0000 C   0  0  0  0  0  0  0  0  0  0  0  0
   14.0481    0.6225    0.0000 C   0  0  0  0  0  0  0  0  0  0  0  0
 16 17  2  0  0  0  0
  4  5  2  0  0  0  0
 17 18  1  0  0  0  0
  8  9  1  0  0  0  0
 18 19  2  0  0  0  0
 14 19  1  0  0  0  0
  1  4  1  0  0  0  0
 11 20  1  0  0  0  0
  9 10  1  0  0  0  0
 20 21  2  0  0  0  0
  5 10  1  0  0  0  0
 21 22  1  0  0  0  0
 22 23  2  0  0  0  0
  9 11  1  0  0  0  0
 23 24  1  0  0  0  0
  2  3  1  0  0  0  0
 24 25  2  0  0  0  0
 20 25  1  0  0  0  0
  8 12  1  0  0  0  0
 24 26  1  0  0  0  0
  5  6  1  0  0  0  0
 26 27  2  0  0  0  0
  1 13  1  0  0  0  0
 26 28  1  0  0  0  0
  3  6  2  0  0  0  0
 28 29  1  0  0  0  0
 29 30  1  0  0  0  0
 13 14  1  0  0  0  0
  6  7  1  0  0  0  0
 14 15  2  0  0  0  0
  1  2  2  0  0  0  0
 15 16  1  0  0  0  0
 29 34  1  0  0  0  0
 30 31  1  0  0  0  0
 31 32  1  0  0  0  0
 32 33  1  0  0  0  0
 33 34  1  0  0  0  0
  7  8  2  0  0  0  0
 28 35  1  0  0  0  0
M  END
> <MoleculeName>
CHEMBL244346

> <pCHEMBL>
6.8

> <AssayDescription>
Inhibition of BACE1

> <PubmedId>
17685503

> <DocumentType>
PUBLICATION

> <TargetName>
Beta-secretase 1

> <TargetChemblId>
CHEMBL4822

> <TargetOrganism>
Homo sapiens

> <TargetComponentGenes>
BACE1

> <PDB>
2q11

> <Order>
85

> <spe_1>
-1.705615

> <spe_2>
0.7414217

> <Scaffold>
1

$$$$
