
  -OEChem-06092216122D

 29 32  0     1  0  0  0  0  0999 V2000
   24.7234  -14.5765    0.0000 C   0  0  3  0  0  0  0  0  0  0  0  0
   23.3025  -14.5765    0.0000 C   0  0  0  0  0  0  0  0  0  0  0  0
   24.0145  -14.9849    0.0000 N   0  0  0  0  0  0  0  0  0  0  0  0
   24.7266  -13.7515    0.0000 C   0  0  0  0  0  0  0  0  0  0  0  0
   22.5884  -14.9901    0.0000 N   0  0  0  0  0  0  0  0  0  0  0  0
   25.4370  -14.9908    0.0000 C   0  0  0  0  0  0  0  0  0  0  0  0
   25.4312  -15.8152    0.0000 C   0  0  0  0  0  0  0  0  0  0  0  0
   26.1439  -16.2294    0.0000 C   0  0  0  0  0  0  0  0  0  0  0  0
   26.8604  -15.8186    0.0000 C   0  0  0  0  0  0  0  0  0  0  0  0
   26.8598  -14.9892    0.0000 C   0  0  0  0  0  0  0  0  0  0  0  0
   26.1465  -14.5787    0.0000 C   0  0  0  0  0  0  0  0  0  0  0  0
   25.4360  -14.1598    0.0000 C   0  0  0  0  0  0  0  0  0  0  0  0
   26.1449  -13.7536    0.0000 F   0  0  0  0  0  0  0  0  0  0  0  0
   26.1415  -17.0545    0.0000 N   0  0  0  0  0  0  0  0  0  0  0  0
   26.8549  -17.4691    0.0000 C   0  0  0  0  0  0  0  0  0  0  0  0
   26.8524  -18.2941    0.0000 C   0  0  0  0  0  0  0  0  0  0  0  0
   27.5706  -17.0586    0.0000 O   0  0  0  0  0  0  0  0  0  0  0  0
   26.1351  -18.7028    0.0000 N   0  0  0  0  0  0  0  0  0  0  0  0
   26.1323  -19.5270    0.0000 C   0  0  0  0  0  0  0  0  0  0  0  0
   26.8463  -19.9425    0.0000 C   0  0  0  0  0  0  0  0  0  0  0  0
   27.5643  -19.5276    0.0000 C   0  0  0  0  0  0  0  0  0  0  0  0
   27.5635  -18.7047    0.0000 C   0  0  0  0  0  0  0  0  0  0  0  0
   23.3025  -13.7515    0.0000 C   0  0  0  0  0  0  0  0  0  0  0  0
   24.0145  -13.3347    0.0000 N   0  0  0  0  0  0  0  0  0  0  0  0
   23.8382  -12.5287    0.0000 C   0  0  0  0  0  0  0  0  0  0  0  0
   23.0171  -12.4472    0.0000 N   0  0  0  0  0  0  0  0  0  0  0  0
   22.6861  -13.2029    0.0000 N   0  0  0  0  0  0  0  0  0  0  0  0
   26.8482  -20.7671    0.0000 C   0  0  0  0  0  0  0  0  0  0  0  0
   26.8469  -21.5922    0.0000 N   0  0  0  0  0  0  0  0  0  0  0  0
  2 23  1  0  0  0  0
  2  3  2  0  0  0  0
  1  3  1  0  0  0  0
  1  4  1  0  0  0  0
  4 24  1  0  0  0  0
  2  5  1  0  0  0  0
  1  6  1  1  0  0  0
  6  7  2  0  0  0  0
  7  8  1  0  0  0  0
  8  9  2  0  0  0  0
  9 10  1  0  0  0  0
 10 11  2  0  0  0  0
  6 11  1  0  0  0  0
  1 12  1  0  0  0  0
 11 13  1  0  0  0  0
  8 14  1  0  0  0  0
 14 15  1  0  0  0  0
 15 16  1  0  0  0  0
 15 17  2  0  0  0  0
 16 18  2  0  0  0  0
 18 19  1  0  0  0  0
 19 20  2  0  0  0  0
 20 21  1  0  0  0  0
 21 22  2  0  0  0  0
 16 22  1  0  0  0  0
 23 24  1  0  0  0  0
 24 25  1  0  0  0  0
 25 26  2  0  0  0  0
 26 27  1  0  0  0  0
 23 27  2  0  0  0  0
 28 29  3  0  0  0  0
 20 28  1  0  0  0  0
M  END
> <MoleculeName>
CHEMBL4473647

> <pCHEMBL>
7.97

> <AssayDescription>
Inhibition of BACE1 (unknown origin)

> <PubmedId>
31413800

> <DocumentType>
PUBLICATION

> <TargetName>
Beta-secretase 1

> <TargetChemblId>
CHEMBL4822

> <TargetOrganism>
Homo sapiens

> <TargetComponentGenes>
BACE1

> <PDB>
6od6

> <Order>
2038

> <spe_1>
0.7677404

> <spe_2>
0.6813322

> <Scaffold>
7

$$$$
