
  -OEChem-06092216122D

 39 44  0     1  0  0  0  0  0999 V2000
    7.9089   -1.4039    0.0000 C   0  0  0  0  0  0  0  0  0  0  0  0
    7.9078   -2.2308    0.0000 C   0  0  0  0  0  0  0  0  0  0  0  0
    8.6222   -2.6434    0.0000 N   0  0  0  0  0  0  0  0  0  0  0  0
    9.3382   -2.2304    0.0000 C   0  0  0  0  0  0  0  0  0  0  0  0
    9.3354   -1.4002    0.0000 N   0  0  0  0  0  0  0  0  0  0  0  0
    8.6204   -0.9913    0.0000 C   0  0  0  0  0  0  0  0  0  0  0  0
    6.4825   -1.4075    0.0000 C   0  0  0  0  0  0  0  0  0  0  0  0
    6.4813   -2.2345    0.0000 C   0  0  0  0  0  0  0  0  0  0  0  0
    7.1957   -2.6470    0.0000 C   0  0  0  0  0  0  0  0  0  0  0  0
    7.1939   -0.9949    0.0000 C   0  0  0  0  0  0  0  0  0  0  0  0
    5.0609    1.0385    0.0000 C   0  0  0  0  0  0  0  0  0  0  0  0
    5.0598    0.2117    0.0000 C   0  0  0  0  0  0  0  0  0  0  0  0
    5.7742   -0.2010    0.0000 C   0  0  0  0  0  0  0  0  0  0  0  0
    6.4902    0.2122    0.0000 C   0  0  0  0  0  0  0  0  0  0  0  0
    6.4874    1.0422    0.0000 C   0  0  0  0  0  0  0  0  0  0  0  0
    5.7724    1.4511    0.0000 C   0  0  0  0  0  0  0  0  0  0  0  0
    9.4080    0.1391    0.0000 C   0  0  0  0  0  0  0  0  0  0  0  0
    9.4253    0.9800    0.0000 C   0  0  0  0  0  0  0  0  0  0  0  0
    8.8905    2.1845    0.0000 N   0  0  0  0  0  0  0  0  0  0  0  0
    7.2520    1.4433    0.0000 C   0  0  0  0  0  0  0  0  0  0  0  0
   10.0864   -1.0670    0.0000 C   0  0  3  0  0  0  0  0  0  0  0  0
   10.1112   -0.2907    0.0000 C   0  0  0  0  0  0  0  0  0  0  0  0
    5.7681   -0.9844    0.0000 O   0  0  0  0  0  0  0  0  0  0  0  0
   10.1479    1.3771    0.0000 O   0  0  0  0  0  0  0  0  0  0  0  0
   10.0529   -2.6414    0.0000 N   0  0  0  0  0  0  0  0  0  0  0  0
   10.7695   -1.5237    0.0000 C   0  0  0  0  0  0  0  0  0  0  0  0
   10.7973   -2.3487    0.0000 C   0  0  0  0  0  0  0  0  0  0  0  0
   11.5216   -2.7351    0.0000 C   0  0  0  0  0  0  0  0  0  0  0  0
   12.2229   -2.3008    0.0000 C   0  0  0  0  0  0  0  0  0  0  0  0
   12.1952   -1.4758    0.0000 C   0  0  0  0  0  0  0  0  0  0  0  0
   11.4661   -1.0850    0.0000 C   0  0  0  0  0  0  0  0  0  0  0  0
    7.2852    2.2671    0.0000 C   0  0  0  0  0  0  0  0  0  0  0  0
    8.0779    2.6210    0.0000 C   0  0  0  0  0  0  0  0  0  0  0  0
    9.3139    2.8921    0.0000 C   0  0  0  0  0  0  0  0  0  0  0  0
   10.1435    2.8728    0.0000 C   0  0  0  0  0  0  0  0  0  0  0  0
   10.5667    3.5762    0.0000 C   0  0  0  0  0  0  0  0  0  0  0  0
   10.1691    4.3045    0.0000 C   0  0  0  0  0  0  0  0  0  0  0  0
    9.3438    4.3147    0.0000 C   0  0  0  0  0  0  0  0  0  0  0  0
    8.9159    3.6059    0.0000 C   0  0  0  0  0  0  0  0  0  0  0  0
  7 10  2  0  0  0  0
  2  3  1  0  0  0  0
 17 18  1  0  0  0  0
 18 19  1  0  0  0  0
 15 20  1  0  0  0  0
  5 21  1  0  0  0  0
 17 22  1  0  0  0  0
 21 22  1  0  0  0  0
  7 23  1  0  0  0  0
 13 23  1  0  0  0  0
  5  6  1  0  0  0  0
 18 24  2  0  0  0  0
 11 12  2  0  0  0  0
  4 25  1  0  0  0  0
 26 27  1  0  0  0  0
  1  6  1  0  0  0  0
 12 13  1  0  0  0  0
  1  2  2  0  0  0  0
 13 14  2  0  0  0  0
  3  4  2  0  0  0  0
 14 15  1  0  0  0  0
 26 31  1  0  0  0  0
 27 28  1  0  0  0  0
 28 29  1  0  0  0  0
 29 30  1  0  0  0  0
 30 31  1  0  0  0  0
 21 26  1  1  0  0  0
  7  8  1  0  0  0  0
 20 32  1  0  0  0  0
 15 16  2  0  0  0  0
 32 33  1  0  0  0  0
 19 33  1  0  0  0  0
 11 16  1  0  0  0  0
 19 34  1  0  0  0  0
 34 35  1  0  0  0  0
  8  9  2  0  0  0  0
  2  9  1  0  0  0  0
  4  5  1  0  0  0  0
  1 10  1  0  0  0  0
 34 39  1  0  0  0  0
 35 36  1  0  0  0  0
 36 37  1  0  0  0  0
 37 38  1  0  0  0  0
 38 39  1  0  0  0  0
M  END
> <MoleculeName>
CHEMBL1098734

> <pCHEMBL>
7.51

> <AssayDescription>
Inhibition of BACE1

> <PubmedId>
20399652

> <DocumentType>
PUBLICATION

> <TargetName>
Beta-secretase 1

> <TargetChemblId>
CHEMBL4822

> <TargetOrganism>
Homo sapiens

> <TargetComponentGenes>
BACE1

> <PDB>
2q15

> <Order>
56

> <spe_1>
-1.365551

> <spe_2>
-0.451621

> <Scaffold>
2

$$$$

  -OEChem-06092216122D

 39 44  0     1  0  0  0  0  0999 V2000
   16.6472   -1.8413    0.0000 C   0  0  0  0  0  0  0  0  0  0  0  0
   16.6460   -2.6682    0.0000 C   0  0  0  0  0  0  0  0  0  0  0  0
   17.3605   -3.0810    0.0000 N   0  0  0  0  0  0  0  0  0  0  0  0
   18.0766   -2.6678    0.0000 C   0  0  0  0  0  0  0  0  0  0  0  0
   18.0737   -1.8376    0.0000 N   0  0  0  0  0  0  0  0  0  0  0  0
   17.3587   -1.4287    0.0000 C   0  0  0  0  0  0  0  0  0  0  0  0
   15.2206   -1.8449    0.0000 C   0  0  0  0  0  0  0  0  0  0  0  0
   15.2195   -2.6719    0.0000 C   0  0  0  0  0  0  0  0  0  0  0  0
   15.9339   -3.0846    0.0000 C   0  0  0  0  0  0  0  0  0  0  0  0
   15.9321   -1.4323    0.0000 C   0  0  0  0  0  0  0  0  0  0  0  0
   13.7989    0.6013    0.0000 C   0  0  0  0  0  0  0  0  0  0  0  0
   13.7978   -0.2256    0.0000 C   0  0  0  0  0  0  0  0  0  0  0  0
   14.5123   -0.6383    0.0000 C   0  0  0  0  0  0  0  0  0  0  0  0
   15.2284   -0.2251    0.0000 C   0  0  0  0  0  0  0  0  0  0  0  0
   15.2255    0.6050    0.0000 C   0  0  0  0  0  0  0  0  0  0  0  0
   14.5105    1.0139    0.0000 C   0  0  0  0  0  0  0  0  0  0  0  0
   18.1464   -0.2982    0.0000 C   0  0  0  0  0  0  0  0  0  0  0  0
   18.1638    0.5427    0.0000 C   0  0  0  0  0  0  0  0  0  0  0  0
   17.6289    1.7474    0.0000 N   0  0  0  0  0  0  0  0  0  0  0  0
   15.9901    1.0061    0.0000 C   0  0  0  0  0  0  0  0  0  0  0  0
   18.8249   -1.5044    0.0000 C   0  0  3  0  0  0  0  0  0  0  0  0
   18.8496   -0.7281    0.0000 C   0  0  0  0  0  0  0  0  0  0  0  0
   14.5062   -1.4217    0.0000 O   0  0  0  0  0  0  0  0  0  0  0  0
   18.8864    0.9400    0.0000 O   0  0  0  0  0  0  0  0  0  0  0  0
   18.7914   -3.0790    0.0000 N   0  0  0  0  0  0  0  0  0  0  0  0
   19.5081   -1.9611    0.0000 C   0  0  0  0  0  0  0  0  0  0  0  0
   19.5357   -2.7862    0.0000 C   0  0  0  0  0  0  0  0  0  0  0  0
   20.2602   -3.1726    0.0000 C   0  0  0  0  0  0  0  0  0  0  0  0
   20.9616   -2.7383    0.0000 C   0  0  0  0  0  0  0  0  0  0  0  0
   20.9339   -1.9132    0.0000 C   0  0  0  0  0  0  0  0  0  0  0  0
   20.2047   -1.5224    0.0000 C   0  0  0  0  0  0  0  0  0  0  0  0
   16.0235    1.8300    0.0000 C   0  0  0  0  0  0  0  0  0  0  0  0
   16.8162    2.1840    0.0000 C   0  0  0  0  0  0  0  0  0  0  0  0
   18.0523    2.4550    0.0000 C   0  0  0  0  0  0  0  0  0  0  0  0
   18.8819    2.4358    0.0000 C   0  0  0  0  0  0  0  0  0  0  0  0
   19.3052    3.1392    0.0000 C   0  0  0  0  0  0  0  0  0  0  0  0
   18.9076    3.8621    0.0000 C   0  0  0  0  0  0  0  0  0  0  0  0
   18.0821    3.8769    0.0000 C   0  0  0  0  0  0  0  0  0  0  0  0
   17.6543    3.1689    0.0000 C   0  0  0  0  0  0  0  0  0  0  0  0
  7 10  2  0  0  0  0
  2  3  1  0  0  0  0
 17 18  1  0  0  0  0
 18 19  1  0  0  0  0
 15 20  1  0  0  0  0
  5 21  1  0  0  0  0
 17 22  1  0  0  0  0
 21 22  1  0  0  0  0
  7 23  1  0  0  0  0
 13 23  1  0  0  0  0
  5  6  1  0  0  0  0
 18 24  2  0  0  0  0
 11 12  2  0  0  0  0
  4 25  1  0  0  0  0
 26 27  1  0  0  0  0
  1  6  1  0  0  0  0
 12 13  1  0  0  0  0
  1  2  2  0  0  0  0
 13 14  2  0  0  0  0
  3  4  2  0  0  0  0
 14 15  1  0  0  0  0
 26 31  1  0  0  0  0
 27 28  1  0  0  0  0
 28 29  1  0  0  0  0
 29 30  1  0  0  0  0
 30 31  1  0  0  0  0
 21 26  1  1  0  0  0
  7  8  1  0  0  0  0
 20 32  1  0  0  0  0
 15 16  2  0  0  0  0
 32 33  1  0  0  0  0
 19 33  1  0  0  0  0
 11 16  1  0  0  0  0
 19 34  1  0  0  0  0
 34 35  1  0  0  0  0
  8  9  2  0  0  0  0
  2  9  1  0  0  0  0
  4  5  1  0  0  0  0
  1 10  1  0  0  0  0
 34 39  1  0  0  0  0
 35 36  1  0  0  0  0
 36 37  1  0  0  0  0
 37 38  1  0  0  0  0
 38 39  1  0  0  0  0
M  END
> <MoleculeName>
CHEMBL1098735

> <pCHEMBL>
6.73

> <AssayDescription>
Inhibition of BACE1

> <PubmedId>
20399652

> <DocumentType>
PUBLICATION

> <TargetName>
Beta-secretase 1

> <TargetChemblId>
CHEMBL4822

> <TargetOrganism>
Homo sapiens

> <TargetComponentGenes>
BACE1

> <PDB>
2q15

> <Order>
58

> <spe_1>
-1.368999

> <spe_2>
-0.4473134

> <Scaffold>
2

$$$$
