
  -OEChem-06092216122D

 28 30  0     1  0  0  0  0  0999 V2000
   31.5320  -20.0955    0.0000 C   0  0  3  0  0  0  0  0  0  0  0  0
   32.2378  -19.6828    0.0000 C   0  0  0  0  0  0  0  0  0  0  0  0
   32.2333  -18.8697    0.0000 C   0  0  0  0  0  0  0  0  0  0  0  0
   31.5246  -18.4632    0.0000 O   0  0  0  0  0  0  0  0  0  0  0  0
   30.8188  -18.8759    0.0000 C   0  0  0  0  0  0  0  0  0  0  0  0
   30.8217  -19.6952    0.0000 N   0  0  0  0  0  0  0  0  0  0  0  0
   25.8804  -19.2948    0.0000 C   0  0  0  0  0  0  0  0  0  0  0  0
   25.8793  -20.1143    0.0000 N   0  0  0  0  0  0  0  0  0  0  0  0
   26.5873  -20.5233    0.0000 C   0  0  0  0  0  0  0  0  0  0  0  0
   27.2970  -20.1138    0.0000 C   0  0  0  0  0  0  0  0  0  0  0  0
   27.2942  -19.2912    0.0000 N   0  0  0  0  0  0  0  0  0  0  0  0
   26.5855  -18.8859    0.0000 C   0  0  0  0  0  0  0  0  0  0  0  0
   28.0053  -20.5213    0.0000 C   0  0  0  0  0  0  0  0  0  0  0  0
   28.0066  -21.3385    0.0000 O   0  0  0  0  0  0  0  0  0  0  0  0
   28.7124  -20.1116    0.0000 N   0  0  0  0  0  0  0  0  0  0  0  0
   29.4208  -20.5191    0.0000 C   0  0  0  0  0  0  0  0  0  0  0  0
   29.4174  -21.3347    0.0000 C   0  0  0  0  0  0  0  0  0  0  0  0
   30.1249  -21.7421    0.0000 C   0  0  0  0  0  0  0  0  0  0  0  0
   30.8330  -21.3324    0.0000 C   0  0  0  0  0  0  0  0  0  0  0  0
   30.8291  -20.5110    0.0000 C   0  0  0  0  0  0  0  0  0  0  0  0
   30.1210  -20.1072    0.0000 C   0  0  0  0  0  0  0  0  0  0  0  0
   31.5419  -21.7389    0.0000 F   0  0  0  0  0  0  0  0  0  0  0  0
   30.1093  -18.4706    0.0000 N   0  0  0  0  0  0  0  0  0  0  0  0
   32.2378  -20.5041    0.0000 C   0  0  0  0  0  0  0  0  0  0  0  0
   32.9393  -18.4582    0.0000 C   0  0  0  0  0  0  0  0  0  0  0  0
   33.6487  -18.8638    0.0000 F   0  0  0  0  0  0  0  0  0  0  0  0
   25.1726  -18.8863    0.0000 O   0  0  0  0  0  0  0  0  0  0  0  0
   25.1724  -18.0691    0.0000 C   0  0  0  0  0  0  0  0  0  0  0  0
  1  2  1  0  0  0  0
  1  6  1  0  0  0  0
  2  3  2  0  0  0  0
  3  4  1  0  0  0  0
  4  5  1  0  0  0  0
  5  6  2  0  0  0  0
  7  8  2  0  0  0  0
  8  9  1  0  0  0  0
  9 10  2  0  0  0  0
 10 11  1  0  0  0  0
 11 12  2  0  0  0  0
  7 12  1  0  0  0  0
 10 13  1  0  0  0  0
 13 14  2  0  0  0  0
 13 15  1  0  0  0  0
 15 16  1  0  0  0  0
 16 17  2  0  0  0  0
 17 18  1  0  0  0  0
 18 19  2  0  0  0  0
 19 20  1  0  0  0  0
 20 21  2  0  0  0  0
 16 21  1  0  0  0  0
 19 22  1  0  0  0  0
  1 20  1  0  0  0  0
  5 23  1  0  0  0  0
  1 24  1  6  0  0  0
  3 25  1  0  0  0  0
 25 26  1  0  0  0  0
  7 27  1  0  0  0  0
 27 28  1  0  0  0  0
M  END
> <MoleculeName>
CHEMBL4203599

> <pCHEMBL>
6.62

> <AssayDescription>
Inhibition of human recombinant BACE1 (43 to 545 residues) expressed in Escherichia coli BL21(DE3) using APP Swedish Lys-Met/Asn-Leu mutant as substrate incubated for 3 hrs by HTRF assay

> <PubmedId>
29733614

> <DocumentType>
PUBLICATION

> <TargetName>
Beta-secretase 1

> <TargetChemblId>
CHEMBL4822

> <TargetOrganism>
Homo sapiens

> <TargetComponentGenes>
BACE1

> <PDB>
7d2x

> <Order>
2020

> <spe_1>
0.7078907

> <spe_2>
-0.5153536

> <Scaffold>
5

$$$$
