
  -OEChem-06092216122D

 29 31  0     1  0  0  0  0  0999 V2000
   28.1394   -9.1047    0.0000 C   0  0  3  0  0  0  0  0  0  0  0  0
   28.8452   -8.6919    0.0000 C   0  0  3  0  0  0  0  0  0  0  0  0
   28.8407   -7.8789    0.0000 C   0  0  3  0  0  0  0  0  0  0  0  0
   28.1320   -7.4724    0.0000 O   0  0  0  0  0  0  0  0  0  0  0  0
   27.4263   -7.8851    0.0000 C   0  0  0  0  0  0  0  0  0  0  0  0
   27.4292   -8.7043    0.0000 N   0  0  0  0  0  0  0  0  0  0  0  0
   22.4878   -8.3039    0.0000 C   0  0  0  0  0  0  0  0  0  0  0  0
   22.4867   -9.1235    0.0000 C   0  0  0  0  0  0  0  0  0  0  0  0
   23.1948   -9.5324    0.0000 C   0  0  0  0  0  0  0  0  0  0  0  0
   23.9044   -9.1230    0.0000 C   0  0  0  0  0  0  0  0  0  0  0  0
   23.9016   -8.3003    0.0000 N   0  0  0  0  0  0  0  0  0  0  0  0
   23.1930   -7.8951    0.0000 C   0  0  0  0  0  0  0  0  0  0  0  0
   24.6128   -9.5305    0.0000 C   0  0  0  0  0  0  0  0  0  0  0  0
   24.6140  -10.3477    0.0000 O   0  0  0  0  0  0  0  0  0  0  0  0
   25.3198   -9.1208    0.0000 N   0  0  0  0  0  0  0  0  0  0  0  0
   26.0282   -9.5283    0.0000 C   0  0  0  0  0  0  0  0  0  0  0  0
   26.0248  -10.3439    0.0000 C   0  0  0  0  0  0  0  0  0  0  0  0
   26.7323  -10.7513    0.0000 C   0  0  0  0  0  0  0  0  0  0  0  0
   27.4404  -10.3416    0.0000 C   0  0  0  0  0  0  0  0  0  0  0  0
   27.4365   -9.5201    0.0000 C   0  0  0  0  0  0  0  0  0  0  0  0
   26.7284   -9.1164    0.0000 C   0  0  0  0  0  0  0  0  0  0  0  0
   21.7767   -7.8937    0.0000 C   0  0  0  0  0  0  0  0  0  0  0  0
   21.0689   -7.4853    0.0000 N   0  0  0  0  0  0  0  0  0  0  0  0
   28.8519   -9.5129    0.0000 C   0  0  0  0  0  0  0  0  0  0  0  0
   26.7167   -7.4797    0.0000 N   0  0  0  0  0  0  0  0  0  0  0  0
   28.1493  -10.7481    0.0000 F   0  0  0  0  0  0  0  0  0  0  0  0
   29.5552   -9.0966    0.0000 F   0  0  0  0  0  0  0  0  0  0  0  0
   29.5467   -7.4673    0.0000 C   0  0  0  0  0  0  0  0  0  0  0  0
   29.5432   -6.6502    0.0000 F   0  0  0  0  0  0  0  0  0  0  0  0
  1  2  1  0  0  0  0
  1  6  1  0  0  0  0
  2  3  1  0  0  0  0
  3  4  1  0  0  0  0
  4  5  1  0  0  0  0
  5  6  2  0  0  0  0
  7  8  2  0  0  0  0
  8  9  1  0  0  0  0
  9 10  2  0  0  0  0
 10 11  1  0  0  0  0
 11 12  2  0  0  0  0
  7 12  1  0  0  0  0
 10 13  1  0  0  0  0
 13 14  2  0  0  0  0
 13 15  1  0  0  0  0
 15 16  1  0  0  0  0
 16 17  2  0  0  0  0
 17 18  1  0  0  0  0
 18 19  2  0  0  0  0
 19 20  1  0  0  0  0
 20 21  2  0  0  0  0
 16 21  1  0  0  0  0
 22 23  3  0  0  0  0
  7 22  1  0  0  0  0
  1 20  1  0  0  0  0
  1 24  1  6  0  0  0
  5 25  1  0  0  0  0
 19 26  1  0  0  0  0
  2 27  1  6  0  0  0
  3 28  1  6  0  0  0
 28 29  1  0  0  0  0
M  END
> <MoleculeName>
CHEMBL4226077

> <pCHEMBL>
7.92

> <AssayDescription>
Inhibition of recombinant human BACE1 (43 to 454 residues) expressed in Escherichia coli BL21(DE3) using Biotin-epsilon-amino-n-capronic acid-SEVNLDAEFRHDSGC-Eu after 3 hrs by HTRF assay

> <PubmedId>
29775538

> <DocumentType>
PUBLICATION

> <TargetName>
Beta-secretase 1

> <TargetChemblId>
CHEMBL4822

> <TargetOrganism>
Homo sapiens

> <TargetComponentGenes>
BACE1

> <PDB>
7d2x

> <Order>
945

> <spe_1>
0.3832468

> <spe_2>
-0.223631

> <Scaffold>
6

$$$$
