
  -OEChem-06092216122D

 30 32  0     1  0  0  0  0  0999 V2000
   38.1191   -9.5009    0.0000 C   0  0  3  0  0  0  0  0  0  0  0  0
   38.8248   -9.0882    0.0000 C   0  0  3  0  0  0  0  0  0  0  0  0
   38.8203   -8.2751    0.0000 C   0  0  3  0  0  0  0  0  0  0  0  0
   38.1117   -7.8686    0.0000 O   0  0  0  0  0  0  0  0  0  0  0  0
   37.4059   -8.2813    0.0000 C   0  0  0  0  0  0  0  0  0  0  0  0
   37.4088   -9.1006    0.0000 N   0  0  0  0  0  0  0  0  0  0  0  0
   32.4675   -8.7002    0.0000 C   0  0  0  0  0  0  0  0  0  0  0  0
   32.4663   -9.5197    0.0000 C   0  0  0  0  0  0  0  0  0  0  0  0
   33.1744   -9.9287    0.0000 C   0  0  0  0  0  0  0  0  0  0  0  0
   33.8841   -9.5192    0.0000 C   0  0  0  0  0  0  0  0  0  0  0  0
   33.8812   -8.6966    0.0000 N   0  0  0  0  0  0  0  0  0  0  0  0
   33.1726   -8.2913    0.0000 C   0  0  0  0  0  0  0  0  0  0  0  0
   34.5924   -9.9267    0.0000 C   0  0  0  0  0  0  0  0  0  0  0  0
   34.5937  -10.7439    0.0000 O   0  0  0  0  0  0  0  0  0  0  0  0
   35.2995   -9.5170    0.0000 N   0  0  0  0  0  0  0  0  0  0  0  0
   36.0078   -9.9245    0.0000 C   0  0  0  0  0  0  0  0  0  0  0  0
   36.0045  -10.7401    0.0000 C   0  0  0  0  0  0  0  0  0  0  0  0
   36.7120  -11.1475    0.0000 C   0  0  0  0  0  0  0  0  0  0  0  0
   37.4200  -10.7378    0.0000 C   0  0  0  0  0  0  0  0  0  0  0  0
   37.4161   -9.9164    0.0000 C   0  0  0  0  0  0  0  0  0  0  0  0
   36.7080   -9.5126    0.0000 C   0  0  0  0  0  0  0  0  0  0  0  0
   31.7563   -8.2900    0.0000 C   0  0  0  0  0  0  0  0  0  0  0  0
   31.0485   -7.8815    0.0000 N   0  0  0  0  0  0  0  0  0  0  0  0
   38.8315   -9.9091    0.0000 C   0  0  0  0  0  0  0  0  0  0  0  0
   36.6963   -7.8760    0.0000 N   0  0  0  0  0  0  0  0  0  0  0  0
   38.1289  -11.1443    0.0000 F   0  0  0  0  0  0  0  0  0  0  0  0
   39.5348   -9.4928    0.0000 O   0  0  0  0  0  0  0  0  0  0  0  0
   39.5263   -7.8636    0.0000 C   0  0  0  0  0  0  0  0  0  0  0  0
   39.5229   -7.0464    0.0000 F   0  0  0  0  0  0  0  0  0  0  0  0
   40.2402   -9.0803    0.0000 C   0  0  0  0  0  0  0  0  0  0  0  0
  1  2  1  0  0  0  0
  1  6  1  0  0  0  0
  2  3  1  0  0  0  0
  3  4  1  0  0  0  0
  4  5  1  0  0  0  0
  5  6  2  0  0  0  0
  7  8  2  0  0  0  0
  8  9  1  0  0  0  0
  9 10  2  0  0  0  0
 10 11  1  0  0  0  0
 11 12  2  0  0  0  0
  7 12  1  0  0  0  0
 10 13  1  0  0  0  0
 13 14  2  0  0  0  0
 13 15  1  0  0  0  0
 15 16  1  0  0  0  0
 16 17  2  0  0  0  0
 17 18  1  0  0  0  0
 18 19  2  0  0  0  0
 19 20  1  0  0  0  0
 20 21  2  0  0  0  0
 16 21  1  0  0  0  0
 22 23  3  0  0  0  0
  7 22  1  0  0  0  0
  1 20  1  0  0  0  0
  1 24  1  6  0  0  0
  5 25  1  0  0  0  0
 19 26  1  0  0  0  0
  2 27  1  6  0  0  0
  3 28  1  6  0  0  0
 28 29  1  0  0  0  0
 27 30  1  0  0  0  0
M  END
> <MoleculeName>
CHEMBL4225225

> <pCHEMBL>
7.56

> <AssayDescription>
Inhibition of recombinant human BACE1 (43 to 454 residues) expressed in Escherichia coli BL21(DE3) using Biotin-epsilon-amino-n-capronic acid-SEVNLDAEFRHDSGC-Eu after 3 hrs by HTRF assay

> <PubmedId>
29775538

> <DocumentType>
PUBLICATION

> <TargetName>
Beta-secretase 1

> <TargetChemblId>
CHEMBL4822

> <TargetOrganism>
Homo sapiens

> <TargetComponentGenes>
BACE1

> <PDB>
7d2x

> <Order>
1022

> <spe_1>
0.4272238

> <spe_2>
-0.1755829

> <Scaffold>
6

$$$$
