
  -OEChem-06092216122D

 29 31  0     1  0  0  0  0  0999 V2000
   40.3767  -13.8634    0.0000 C   0  0  3  0  0  0  0  0  0  0  0  0
   41.0824  -13.4506    0.0000 C   0  0  3  0  0  0  0  0  0  0  0  0
   41.0779  -12.6376    0.0000 C   0  0  3  0  0  0  0  0  0  0  0  0
   40.3692  -12.2311    0.0000 O   0  0  0  0  0  0  0  0  0  0  0  0
   39.6635  -12.6438    0.0000 C   0  0  0  0  0  0  0  0  0  0  0  0
   39.6664  -13.4630    0.0000 N   0  0  0  0  0  0  0  0  0  0  0  0
   34.7251  -13.0626    0.0000 C   0  0  0  0  0  0  0  0  0  0  0  0
   34.7239  -13.8822    0.0000 N   0  0  0  0  0  0  0  0  0  0  0  0
   35.4320  -14.2911    0.0000 C   0  0  0  0  0  0  0  0  0  0  0  0
   36.1416  -13.8817    0.0000 C   0  0  0  0  0  0  0  0  0  0  0  0
   36.1388  -13.0590    0.0000 N   0  0  0  0  0  0  0  0  0  0  0  0
   35.4302  -12.6538    0.0000 C   0  0  0  0  0  0  0  0  0  0  0  0
   36.8500  -14.2892    0.0000 C   0  0  0  0  0  0  0  0  0  0  0  0
   36.8513  -15.1064    0.0000 O   0  0  0  0  0  0  0  0  0  0  0  0
   37.5571  -13.8795    0.0000 N   0  0  0  0  0  0  0  0  0  0  0  0
   38.2654  -14.2870    0.0000 C   0  0  0  0  0  0  0  0  0  0  0  0
   38.2621  -15.1026    0.0000 C   0  0  0  0  0  0  0  0  0  0  0  0
   38.9696  -15.5100    0.0000 C   0  0  0  0  0  0  0  0  0  0  0  0
   39.6776  -15.1003    0.0000 C   0  0  0  0  0  0  0  0  0  0  0  0
   39.6737  -14.2788    0.0000 C   0  0  0  0  0  0  0  0  0  0  0  0
   38.9656  -13.8751    0.0000 C   0  0  0  0  0  0  0  0  0  0  0  0
   41.0891  -14.2716    0.0000 C   0  0  0  0  0  0  0  0  0  0  0  0
   38.9539  -12.2384    0.0000 N   0  0  0  0  0  0  0  0  0  0  0  0
   40.3865  -15.5068    0.0000 F   0  0  0  0  0  0  0  0  0  0  0  0
   41.7924  -13.8553    0.0000 F   0  0  0  0  0  0  0  0  0  0  0  0
   41.7839  -12.2260    0.0000 C   0  0  0  0  0  0  0  0  0  0  0  0
   41.7805  -11.4089    0.0000 F   0  0  0  0  0  0  0  0  0  0  0  0
   34.0173  -12.6542    0.0000 O   0  0  0  0  0  0  0  0  0  0  0  0
   34.0171  -11.8370    0.0000 C   0  0  0  0  0  0  0  0  0  0  0  0
  1  2  1  0  0  0  0
  1  6  1  0  0  0  0
  2  3  1  0  0  0  0
  3  4  1  0  0  0  0
  4  5  1  0  0  0  0
  5  6  2  0  0  0  0
  7  8  2  0  0  0  0
  8  9  1  0  0  0  0
  9 10  2  0  0  0  0
 10 11  1  0  0  0  0
 11 12  2  0  0  0  0
  7 12  1  0  0  0  0
 10 13  1  0  0  0  0
 13 14  2  0  0  0  0
 13 15  1  0  0  0  0
 15 16  1  0  0  0  0
 16 17  2  0  0  0  0
 17 18  1  0  0  0  0
 18 19  2  0  0  0  0
 19 20  1  0  0  0  0
 20 21  2  0  0  0  0
 16 21  1  0  0  0  0
  1 20  1  0  0  0  0
  1 22  1  6  0  0  0
  5 23  1  0  0  0  0
 19 24  1  0  0  0  0
  2 25  1  6  0  0  0
  3 26  1  6  0  0  0
 26 27  1  0  0  0  0
  7 28  1  0  0  0  0
 28 29  1  0  0  0  0
M  END
> <MoleculeName>
CHEMBL4227313

> <pCHEMBL>
7.75

> <AssayDescription>
Inhibition of recombinant human BACE1 (43 to 454 residues) expressed in Escherichia coli BL21(DE3) using Biotin-epsilon-amino-n-capronic acid-SEVNLDAEFRHDSGC-Eu after 3 hrs by HTRF assay

> <PubmedId>
29775538

> <DocumentType>
PUBLICATION

> <TargetName>
Beta-secretase 1

> <TargetChemblId>
CHEMBL4822

> <TargetOrganism>
Homo sapiens

> <TargetComponentGenes>
BACE1

> <PDB>
7d2x

> <Order>
983

> <spe_1>
0.2772084

> <spe_2>
-0.5049412

> <Scaffold>
6

$$$$
