
  -OEChem-06092216122D

 28 31  0     1  0  0  0  0  0999 V2000
   13.1782   -2.7529    0.0000 C   0  0  3  0  0  0  0  0  0  0  0  0
   11.7709   -2.7529    0.0000 C   0  0  0  0  0  0  0  0  0  0  0  0
   12.4761   -3.1573    0.0000 N   0  0  0  0  0  0  0  0  0  0  0  0
   13.1814   -1.9357    0.0000 C   0  0  0  0  0  0  0  0  0  0  0  0
   11.0637   -3.1625    0.0000 N   0  0  0  0  0  0  0  0  0  0  0  0
   13.8850   -3.1632    0.0000 C   0  0  0  0  0  0  0  0  0  0  0  0
   13.8793   -3.9797    0.0000 C   0  0  0  0  0  0  0  0  0  0  0  0
   14.5852   -4.3899    0.0000 C   0  0  0  0  0  0  0  0  0  0  0  0
   15.2948   -3.9830    0.0000 C   0  0  0  0  0  0  0  0  0  0  0  0
   15.2942   -3.1616    0.0000 C   0  0  0  0  0  0  0  0  0  0  0  0
   14.5877   -2.7550    0.0000 C   0  0  0  0  0  0  0  0  0  0  0  0
   13.8840   -2.3401    0.0000 C   0  0  0  0  0  0  0  0  0  0  0  0
   14.5861   -1.9379    0.0000 F   0  0  0  0  0  0  0  0  0  0  0  0
   14.5828   -5.2071    0.0000 N   0  0  0  0  0  0  0  0  0  0  0  0
   15.2893   -5.6178    0.0000 C   0  0  0  0  0  0  0  0  0  0  0  0
   15.2869   -6.4350    0.0000 C   0  0  0  0  0  0  0  0  0  0  0  0
   15.9982   -5.2112    0.0000 O   0  0  0  0  0  0  0  0  0  0  0  0
   14.5764   -6.8396    0.0000 N   0  0  0  0  0  0  0  0  0  0  0  0
   14.5737   -7.6560    0.0000 C   0  0  0  0  0  0  0  0  0  0  0  0
   15.2808   -8.0675    0.0000 C   0  0  0  0  0  0  0  0  0  0  0  0
   15.9920   -7.6566    0.0000 C   0  0  0  0  0  0  0  0  0  0  0  0
   15.9912   -6.8415    0.0000 C   0  0  0  0  0  0  0  0  0  0  0  0
   15.2795   -8.8847    0.0000 Cl  0  0  0  0  0  0  0  0  0  0  0  0
   11.7708   -1.9357    0.0000 C   0  0  0  0  0  0  0  0  0  0  0  0
   12.4761   -1.5229    0.0000 N   0  0  0  0  0  0  0  0  0  0  0  0
   12.3015   -0.7246    0.0000 C   0  0  0  0  0  0  0  0  0  0  0  0
   11.4883   -0.6439    0.0000 C   0  0  0  0  0  0  0  0  0  0  0  0
   11.1604   -1.3925    0.0000 N   0  0  0  0  0  0  0  0  0  0  0  0
  2 24  1  0  0  0  0
  2  3  2  0  0  0  0
  1  3  1  0  0  0  0
  1  4  1  0  0  0  0
  4 25  1  0  0  0  0
  2  5  1  0  0  0  0
  1  6  1  1  0  0  0
  6  7  2  0  0  0  0
  7  8  1  0  0  0  0
  8  9  2  0  0  0  0
  9 10  1  0  0  0  0
 10 11  2  0  0  0  0
  6 11  1  0  0  0  0
  1 12  1  0  0  0  0
 11 13  1  0  0  0  0
  8 14  1  0  0  0  0
 14 15  1  0  0  0  0
 15 16  1  0  0  0  0
 15 17  2  0  0  0  0
 16 18  2  0  0  0  0
 18 19  1  0  0  0  0
 19 20  2  0  0  0  0
 20 21  1  0  0  0  0
 21 22  2  0  0  0  0
 16 22  1  0  0  0  0
 20 23  1  0  0  0  0
 24 25  1  0  0  0  0
 25 26  1  0  0  0  0
 26 27  2  0  0  0  0
 27 28  1  0  0  0  0
 24 28  2  0  0  0  0
M  END
> <MoleculeName>
CHEMBL4466470

> <pCHEMBL>
7.46

> <AssayDescription>
Inhibition of BACE1 (unknown origin)

> <PubmedId>
31413800

> <DocumentType>
PUBLICATION

> <TargetName>
Beta-secretase 1

> <TargetChemblId>
CHEMBL4822

> <TargetOrganism>
Homo sapiens

> <TargetComponentGenes>
BACE1

> <PDB>
6od6

> <Order>
2037

> <spe_1>
0.3315064

> <spe_2>
0.6341741

> <Scaffold>
7

$$$$
