
  -OEChem-06092216122D

 30 33  0     1  0  0  0  0  0999 V2000
   19.4846  -15.6587    0.0000 C   0  0  3  0  0  0  0  0  0  0  0  0
   20.1904  -15.2460    0.0000 C   0  0  0  0  0  0  0  0  0  0  0  0
   20.1859  -14.4329    0.0000 C   0  0  0  0  0  0  0  0  0  0  0  0
   19.4772  -14.0264    0.0000 O   0  0  0  0  0  0  0  0  0  0  0  0
   18.7715  -14.4392    0.0000 C   0  0  0  0  0  0  0  0  0  0  0  0
   18.7744  -15.2584    0.0000 N   0  0  0  0  0  0  0  0  0  0  0  0
   13.8331  -14.8580    0.0000 C   0  0  0  0  0  0  0  0  0  0  0  0
   13.8319  -15.6775    0.0000 C   0  0  0  0  0  0  0  0  0  0  0  0
   14.5400  -16.0865    0.0000 C   0  0  0  0  0  0  0  0  0  0  0  0
   15.2496  -15.6770    0.0000 C   0  0  0  0  0  0  0  0  0  0  0  0
   15.2468  -14.8544    0.0000 N   0  0  0  0  0  0  0  0  0  0  0  0
   14.5382  -14.4491    0.0000 C   0  0  0  0  0  0  0  0  0  0  0  0
   13.1219  -14.4478    0.0000 C   0  0  0  0  0  0  0  0  0  0  0  0
   12.4141  -14.0394    0.0000 N   0  0  0  0  0  0  0  0  0  0  0  0
   15.9580  -16.0845    0.0000 C   0  0  0  0  0  0  0  0  0  0  0  0
   15.9592  -16.9017    0.0000 O   0  0  0  0  0  0  0  0  0  0  0  0
   16.6650  -15.6748    0.0000 N   0  0  0  0  0  0  0  0  0  0  0  0
   17.3734  -16.0823    0.0000 C   0  0  0  0  0  0  0  0  0  0  0  0
   17.3700  -16.8980    0.0000 C   0  0  0  0  0  0  0  0  0  0  0  0
   18.0775  -17.3054    0.0000 C   0  0  0  0  0  0  0  0  0  0  0  0
   18.7856  -16.8956    0.0000 C   0  0  0  0  0  0  0  0  0  0  0  0
   18.7817  -16.0742    0.0000 C   0  0  0  0  0  0  0  0  0  0  0  0
   18.0736  -15.6705    0.0000 C   0  0  0  0  0  0  0  0  0  0  0  0
   19.4945  -17.3021    0.0000 F   0  0  0  0  0  0  0  0  0  0  0  0
   18.0619  -14.0338    0.0000 N   0  0  0  0  0  0  0  0  0  0  0  0
   20.1904  -16.0673    0.0000 C   0  0  0  0  0  0  0  0  0  0  0  0
   20.8919  -14.0214    0.0000 C   0  0  0  0  0  0  0  0  0  0  0  0
   21.6013  -14.4270    0.0000 F   0  0  0  0  0  0  0  0  0  0  0  0
   20.5973  -16.7740    0.0000 C   0  0  0  0  0  0  0  0  0  0  0  0
   21.0059  -16.0683    0.0000 C   0  0  0  0  0  0  0  0  0  0  0  0
  1  2  1  0  0  0  0
  1  6  1  0  0  0  0
  2  3  2  0  0  0  0
  3  4  1  0  0  0  0
  4  5  1  0  0  0  0
  5  6  2  0  0  0  0
  7  8  2  0  0  0  0
  8  9  1  0  0  0  0
  9 10  2  0  0  0  0
 10 11  1  0  0  0  0
 11 12  2  0  0  0  0
  7 12  1  0  0  0  0
 13 14  3  0  0  0  0
  7 13  1  0  0  0  0
 10 15  1  0  0  0  0
 15 16  2  0  0  0  0
 15 17  1  0  0  0  0
 17 18  1  0  0  0  0
 18 19  2  0  0  0  0
 19 20  1  0  0  0  0
 20 21  2  0  0  0  0
 21 22  1  0  0  0  0
 22 23  2  0  0  0  0
 18 23  1  0  0  0  0
 21 24  1  0  0  0  0
  1 22  1  0  0  0  0
  5 25  1  0  0  0  0
  1 26  1  6  0  0  0
  3 27  1  0  0  0  0
 27 28  1  0  0  0  0
 26 29  1  0  0  0  0
 29 30  1  0  0  0  0
 26 30  1  0  0  0  0
M  END
> <MoleculeName>
CHEMBL4212939

> <pCHEMBL>
6.48

> <AssayDescription>
Inhibition of human recombinant BACE1 (43 to 545 residues) expressed in Escherichia coli BL21(DE3) using APP Swedish Lys-Met/Asn-Leu mutant as substrate incubated for 3 hrs by HTRF assay

> <PubmedId>
29733614

> <DocumentType>
PUBLICATION

> <TargetName>
Beta-secretase 1

> <TargetChemblId>
CHEMBL4822

> <TargetOrganism>
Homo sapiens

> <TargetComponentGenes>
BACE1

> <PDB>
7d2x

> <Order>
2029

> <spe_1>
0.8339884

> <spe_2>
0.1053321

> <Scaffold>
5

$$$$
