
  -OEChem-06092216122D

 27 29  0     1  0  0  0  0  0999 V2000
    2.3383   -1.3500    0.0000 C   0  0  0  0  0  0  0  0  0  0  0  0
    1.2990   -0.7500    0.0000 C   0  0  0  0  0  0  0  0  0  0  0  0
    1.2990    0.7500    0.0000 C   0  0  0  0  0  0  0  0  0  0  0  0
    0.0000    1.5000    0.0000 C   0  0  3  0  0  0  0  0  0  0  0  0
    1.0531    2.0753    0.0000 C   0  0  0  0  0  0  0  0  0  0  0  0
   -1.2990    0.7500    0.0000 N   0  0  0  0  0  0  0  0  0  0  0  0
   -1.2990   -0.7500    0.0000 C   0  0  0  0  0  0  0  0  0  0  0  0
   -2.3383   -1.3500    0.0000 N   0  0  0  0  0  0  0  0  0  0  0  0
    0.0000   -1.5000    0.0000 O   0  0  0  0  0  0  0  0  0  0  0  0
   -1.2993    2.2100    0.0000 C   0  0  0  0  0  0  0  0  0  0  0  0
   -2.5804    1.4297    0.0000 C   0  0  0  0  0  0  0  0  0  0  0  0
   -3.8967    2.1490    0.0000 C   0  0  0  0  0  0  0  0  0  0  0  0
   -5.1800    1.3709    0.0000 N   0  0  0  0  0  0  0  0  0  0  0  0
   -6.4960    2.0924    0.0000 C   0  0  0  0  0  0  0  0  0  0  0  0
   -6.5221    3.2921    0.0000 O   0  0  0  0  0  0  0  0  0  0  0  0
   -7.7794    1.3143    0.0000 C   0  0  0  0  0  0  0  0  0  0  0  0
   -9.0958    2.0336    0.0000 C   0  0  0  0  0  0  0  0  0  0  0  0
  -10.3768    1.2533    0.0000 C   0  0  0  0  0  0  0  0  0  0  0  0
  -10.3416   -0.2463    0.0000 C   0  0  0  0  0  0  0  0  0  0  0  0
   -9.0254   -0.9656    0.0000 C   0  0  0  0  0  0  0  0  0  0  0  0
   -7.7443   -0.1853    0.0000 N   0  0  0  0  0  0  0  0  0  0  0  0
  -11.6234   -1.0270    0.0000 C   0  0  0  0  0  0  0  0  0  0  0  0
  -12.6483   -1.6512    0.0000 N   0  0  0  0  0  0  0  0  0  0  0  0
   -3.9319    3.6485    0.0000 C   0  0  0  0  0  0  0  0  0  0  0  0
   -2.6508    4.4289    0.0000 C   0  0  0  0  0  0  0  0  0  0  0  0
   -1.3345    3.7096    0.0000 C   0  0  0  0  0  0  0  0  0  0  0  0
   -0.3097    4.3338    0.0000 F   0  0  0  0  0  0  0  0  0  0  0  0
  1  2  1  0  0  0  0
  2  3  2  0  0  0  0
  3  4  1  0  0  0  0
  4  5  1  1  0  0  0
  4  6  1  0  0  0  0
  6  7  2  0  0  0  0
  7  8  1  0  0  0  0
  7  9  1  0  0  0  0
  2  9  1  0  0  0  0
  4 10  1  0  0  0  0
 10 11  2  0  0  0  0
 11 12  1  0  0  0  0
 12 13  1  0  0  0  0
 13 14  1  0  0  0  0
 14 15  2  0  0  0  0
 14 16  1  0  0  0  0
 16 17  2  0  0  0  0
 17 18  1  0  0  0  0
 18 19  2  0  0  0  0
 19 20  1  0  0  0  0
 20 21  2  0  0  0  0
 16 21  1  0  0  0  0
 19 22  1  0  0  0  0
 22 23  3  0  0  0  0
 12 24  2  0  0  0  0
 24 25  1  0  0  0  0
 25 26  2  0  0  0  0
 10 26  1  0  0  0  0
 26 27  1  0  0  0  0
M  END
> <MoleculeName>
CHEMBL3658616

> <pCHEMBL>
7.18

> <AssayDescription>
Inhibition of human recombinant BACE1 (43 to 545 residues) expressed in Escherichia coli BL21(DE3) using APP Swedish Lys-Met/Asn-Leu mutant as substrate incubated for 3 hrs by HTRF assay

> <PubmedId>
29733614

> <DocumentType>
PUBLICATION

> <TargetName>
Beta-secretase 1

> <TargetChemblId>
CHEMBL4822

> <TargetOrganism>
Homo sapiens

> <TargetComponentGenes>
BACE1

> <PDB>
7d2x

> <Order>
2018

> <spe_1>
0.6414285

> <spe_2>
0.03280729

> <Scaffold>
5

$$$$
