
  -OEChem-06092216122D

 41 46  0     1  0  0  0  0  0999 V2000
    2.9836   -6.5955    0.0000 C   0  0  0  0  0  0  0  0  0  0  0  0
    2.9825   -7.4231    0.0000 C   0  0  0  0  0  0  0  0  0  0  0  0
    3.6974   -7.8361    0.0000 N   0  0  0  0  0  0  0  0  0  0  0  0
    4.4139   -7.4226    0.0000 C   0  0  0  0  0  0  0  0  0  0  0  0
    4.4111   -6.5919    0.0000 N   0  0  0  0  0  0  0  0  0  0  0  0
    3.6956   -6.1827    0.0000 C   0  0  0  0  0  0  0  0  0  0  0  0
    1.5561   -6.5992    0.0000 C   0  0  0  0  0  0  0  0  0  0  0  0
    1.5549   -7.4267    0.0000 C   0  0  0  0  0  0  0  0  0  0  0  0
    2.2698   -7.8397    0.0000 C   0  0  0  0  0  0  0  0  0  0  0  0
    2.2680   -6.1863    0.0000 C   0  0  0  0  0  0  0  0  0  0  0  0
    0.1334   -4.1513    0.0000 C   0  0  0  0  0  0  0  0  0  0  0  0
    0.1323   -4.9788    0.0000 C   0  0  0  0  0  0  0  0  0  0  0  0
    0.8473   -5.3918    0.0000 C   0  0  0  0  0  0  0  0  0  0  0  0
    1.5638   -4.9783    0.0000 C   0  0  0  0  0  0  0  0  0  0  0  0
    1.5610   -4.1477    0.0000 C   0  0  0  0  0  0  0  0  0  0  0  0
    0.8455   -3.7385    0.0000 C   0  0  0  0  0  0  0  0  0  0  0  0
    4.4838   -5.0513    0.0000 C   0  0  0  0  0  0  0  0  0  0  0  0
    4.5012   -4.2100    0.0000 C   0  0  0  0  0  0  0  0  0  0  0  0
    3.7861   -3.7765    0.0000 N   0  0  0  0  0  0  0  0  0  0  0  0
    3.0454   -4.1798    0.0000 C   0  0  0  0  0  0  0  0  0  0  0  0
    2.3262   -3.7463    0.0000 C   0  0  0  0  0  0  0  0  0  0  0  0
    5.1627   -6.2585    0.0000 C   0  0  3  0  0  0  0  0  0  0  0  0
    5.1875   -5.4816    0.0000 C   0  0  0  0  0  0  0  0  0  0  0  0
    0.8412   -6.1757    0.0000 O   0  0  0  0  0  0  0  0  0  0  0  0
    5.2243   -3.8125    0.0000 O   0  0  0  0  0  0  0  0  0  0  0  0
    5.1292   -7.8341    0.0000 N   0  0  0  0  0  0  0  0  0  0  0  0
    5.8463   -6.7154    0.0000 C   0  0  0  0  0  0  0  0  0  0  0  0
    3.8052   -2.9515    0.0000 C   0  0  0  0  0  0  0  0  0  0  0  0
    4.5290   -2.5600    0.0000 C   0  0  0  0  0  0  0  0  0  0  0  0
    4.5500   -1.7386    0.0000 C   0  0  0  0  0  0  0  0  0  0  0  0
    3.8470   -1.3058    0.0000 C   0  0  0  0  0  0  0  0  0  0  0  0
    3.1213   -1.7004    0.0000 C   0  0  0  0  0  0  0  0  0  0  0  0
    3.0984   -2.5279    0.0000 C   0  0  0  0  0  0  0  0  0  0  0  0
    5.8537   -7.5346    0.0000 C   0  0  0  0  0  0  0  0  0  0  0  0
    6.5666   -7.9373    0.0000 C   0  0  0  0  0  0  0  0  0  0  0  0
    7.2763   -7.5213    0.0000 C   0  0  0  0  0  0  0  0  0  0  0  0
    7.2686   -6.6980    0.0000 C   0  0  0  0  0  0  0  0  0  0  0  0
    6.5511   -6.2909    0.0000 C   0  0  0  0  0  0  0  0  0  0  0  0
    3.8692   -0.4810    0.0000 C   0  0  0  0  0  0  0  0  0  0  0  0
    4.5948   -0.0878    0.0000 O   0  0  0  0  0  0  0  0  0  0  0  0
    3.1661   -0.0493    0.0000 O   0  0  0  0  0  0  0  0  0  0  0  0
  5  6  1  0  0  0  0
 17 18  1  0  0  0  0
 18 19  1  0  0  0  0
 19 20  1  0  0  0  0
 15 21  1  0  0  0  0
 20 21  1  0  0  0  0
  5 22  1  0  0  0  0
 17 23  1  0  0  0  0
 22 23  1  0  0  0  0
  7 24  1  0  0  0  0
 13 24  1  0  0  0  0
 11 12  2  0  0  0  0
 18 25  2  0  0  0  0
  1  6  1  0  0  0  0
  4 26  1  0  0  0  0
 12 13  1  0  0  0  0
 22 27  1  1  0  0  0
  1  2  2  0  0  0  0
 28 19  1  6  0  0  0
 28 29  1  0  0  0  0
 13 14  2  0  0  0  0
  3  4  2  0  0  0  0
 14 15  1  0  0  0  0
  7  8  1  0  0  0  0
 15 16  2  0  0  0  0
 28 33  1  0  0  0  0
 29 30  1  0  0  0  0
 30 31  1  0  0  0  0
 31 32  1  0  0  0  0
 32 33  1  0  0  0  0
 27 34  1  0  0  0  0
 11 16  1  0  0  0  0
  8  9  2  0  0  0  0
  2  9  1  0  0  0  0
  4  5  1  0  0  0  0
 27 38  1  0  0  0  0
 34 35  1  0  0  0  0
 35 36  1  0  0  0  0
 36 37  1  0  0  0  0
 37 38  1  0  0  0  0
  1 10  1  0  0  0  0
 31 39  1  6  0  0  0
  7 10  2  0  0  0  0
 39 40  1  0  0  0  0
  2  3  1  0  0  0  0
 39 41  2  0  0  0  0
M  END
> <MoleculeName>
CHEMBL1097281

> <pCHEMBL>
7.7

> <AssayDescription>
Inhibition of BACE1

> <PubmedId>
20399652

> <DocumentType>
PUBLICATION

> <TargetName>
Beta-secretase 1

> <TargetChemblId>
CHEMBL4822

> <TargetOrganism>
Homo sapiens

> <TargetComponentGenes>
BACE1

> <PDB>
2q15

> <Order>
65

> <spe_1>
-1.569062

> <spe_2>
-0.4915232

> <Scaffold>
2

$$$$
