
  -OEChem-06092216122D

 27 29  0     1  0  0  0  0  0999 V2000
    8.6507   -8.5351    0.0000 C   0  0  3  0  0  0  0  0  0  0  0  0
    9.3564   -8.1224    0.0000 C   0  0  3  0  0  0  0  0  0  0  0  0
    9.3519   -7.3093    0.0000 C   0  0  0  0  0  0  0  0  0  0  0  0
    8.6432   -6.9028    0.0000 O   0  0  0  0  0  0  0  0  0  0  0  0
    7.9375   -7.3156    0.0000 C   0  0  0  0  0  0  0  0  0  0  0  0
    7.9404   -8.1348    0.0000 N   0  0  0  0  0  0  0  0  0  0  0  0
    2.9991   -7.7344    0.0000 C   0  0  0  0  0  0  0  0  0  0  0  0
    2.9979   -8.5539    0.0000 C   0  0  0  0  0  0  0  0  0  0  0  0
    3.7060   -8.9629    0.0000 C   0  0  0  0  0  0  0  0  0  0  0  0
    4.4156   -8.5535    0.0000 C   0  0  0  0  0  0  0  0  0  0  0  0
    4.4128   -7.7308    0.0000 N   0  0  0  0  0  0  0  0  0  0  0  0
    3.7042   -7.3255    0.0000 C   0  0  0  0  0  0  0  0  0  0  0  0
    5.1240   -8.9609    0.0000 C   0  0  0  0  0  0  0  0  0  0  0  0
    5.1253   -9.7781    0.0000 O   0  0  0  0  0  0  0  0  0  0  0  0
    5.8311   -8.5512    0.0000 N   0  0  0  0  0  0  0  0  0  0  0  0
    6.5394   -8.9587    0.0000 C   0  0  0  0  0  0  0  0  0  0  0  0
    6.5361   -9.7744    0.0000 C   0  0  0  0  0  0  0  0  0  0  0  0
    7.2436  -10.1818    0.0000 C   0  0  0  0  0  0  0  0  0  0  0  0
    7.9516   -9.7720    0.0000 C   0  0  0  0  0  0  0  0  0  0  0  0
    7.9477   -8.9506    0.0000 C   0  0  0  0  0  0  0  0  0  0  0  0
    7.2396   -8.5469    0.0000 C   0  0  0  0  0  0  0  0  0  0  0  0
    2.2879   -7.3242    0.0000 C   0  0  0  0  0  0  0  0  0  0  0  0
    1.5801   -6.9158    0.0000 N   0  0  0  0  0  0  0  0  0  0  0  0
    9.3631   -8.9434    0.0000 C   0  0  0  0  0  0  0  0  0  0  0  0
    7.2279   -6.9102    0.0000 N   0  0  0  0  0  0  0  0  0  0  0  0
    8.6605  -10.1785    0.0000 F   0  0  0  0  0  0  0  0  0  0  0  0
   10.0664   -8.5270    0.0000 C   0  0  0  0  0  0  0  0  0  0  0  0
  1  2  1  0  0  0  0
  1  6  1  0  0  0  0
  2  3  1  0  0  0  0
  3  4  1  0  0  0  0
  4  5  1  0  0  0  0
  5  6  2  0  0  0  0
  7  8  2  0  0  0  0
  8  9  1  0  0  0  0
  9 10  2  0  0  0  0
 10 11  1  0  0  0  0
 11 12  2  0  0  0  0
  7 12  1  0  0  0  0
 10 13  1  0  0  0  0
 13 14  2  0  0  0  0
 13 15  1  0  0  0  0
 15 16  1  0  0  0  0
 16 17  2  0  0  0  0
 17 18  1  0  0  0  0
 18 19  2  0  0  0  0
 19 20  1  0  0  0  0
 20 21  2  0  0  0  0
 16 21  1  0  0  0  0
 22 23  3  0  0  0  0
  7 22  1  0  0  0  0
  1 20  1  0  0  0  0
  1 24  1  6  0  0  0
  5 25  1  0  0  0  0
 19 26  1  0  0  0  0
  2 27  1  1  0  0  0
M  END
> <MoleculeName>
CHEMBL4228841

> <pCHEMBL>
7.15

> <AssayDescription>
Inhibition of recombinant human BACE1 (43 to 454 residues) expressed in Escherichia coli BL21(DE3) using Biotin-epsilon-amino-n-capronic acid-SEVNLDAEFRHDSGC-Eu after 3 hrs by HTRF assay

> <PubmedId>
29775538

> <DocumentType>
PUBLICATION

> <TargetName>
Beta-secretase 1

> <TargetChemblId>
CHEMBL4822

> <TargetOrganism>
Homo sapiens

> <TargetComponentGenes>
BACE1

> <PDB>
7d2x

> <Order>
789

> <spe_1>
0.3548914

> <spe_2>
0.02490975

> <Scaffold>
6

$$$$

  -OEChem-06092216122D

 27 29  0     1  0  0  0  0  0999 V2000
   29.8234   -3.8631    0.0000 C   0  0  3  0  0  0  0  0  0  0  0  0
   30.5291   -3.4504    0.0000 C   0  0  3  0  0  0  0  0  0  0  0  0
   30.5246   -2.6373    0.0000 C   0  0  0  0  0  0  0  0  0  0  0  0
   29.8159   -2.2308    0.0000 O   0  0  0  0  0  0  0  0  0  0  0  0
   29.1102   -2.6435    0.0000 C   0  0  0  0  0  0  0  0  0  0  0  0
   29.1131   -3.4628    0.0000 N   0  0  0  0  0  0  0  0  0  0  0  0
   24.1718   -3.0624    0.0000 C   0  0  0  0  0  0  0  0  0  0  0  0
   24.1706   -3.8819    0.0000 C   0  0  0  0  0  0  0  0  0  0  0  0
   24.8787   -4.2909    0.0000 C   0  0  0  0  0  0  0  0  0  0  0  0
   25.5883   -3.8814    0.0000 C   0  0  0  0  0  0  0  0  0  0  0  0
   25.5855   -3.0588    0.0000 N   0  0  0  0  0  0  0  0  0  0  0  0
   24.8769   -2.6535    0.0000 C   0  0  0  0  0  0  0  0  0  0  0  0
   26.2967   -4.2889    0.0000 C   0  0  0  0  0  0  0  0  0  0  0  0
   26.2980   -5.1061    0.0000 O   0  0  0  0  0  0  0  0  0  0  0  0
   27.0037   -3.8792    0.0000 N   0  0  0  0  0  0  0  0  0  0  0  0
   27.7121   -4.2867    0.0000 C   0  0  0  0  0  0  0  0  0  0  0  0
   27.7087   -5.1023    0.0000 C   0  0  0  0  0  0  0  0  0  0  0  0
   28.4163   -5.5097    0.0000 C   0  0  0  0  0  0  0  0  0  0  0  0
   29.1243   -5.1000    0.0000 C   0  0  0  0  0  0  0  0  0  0  0  0
   29.1204   -4.2786    0.0000 C   0  0  0  0  0  0  0  0  0  0  0  0
   28.4123   -3.8749    0.0000 C   0  0  0  0  0  0  0  0  0  0  0  0
   23.4606   -2.6522    0.0000 C   0  0  0  0  0  0  0  0  0  0  0  0
   22.7528   -2.2437    0.0000 N   0  0  0  0  0  0  0  0  0  0  0  0
   30.5358   -4.2713    0.0000 C   0  0  0  0  0  0  0  0  0  0  0  0
   28.4006   -2.2382    0.0000 N   0  0  0  0  0  0  0  0  0  0  0  0
   29.8332   -5.5065    0.0000 F   0  0  0  0  0  0  0  0  0  0  0  0
   31.2391   -3.8550    0.0000 C   0  0  0  0  0  0  0  0  0  0  0  0
  1  2  1  0  0  0  0
  1  6  1  0  0  0  0
  2  3  1  0  0  0  0
  3  4  1  0  0  0  0
  4  5  1  0  0  0  0
  5  6  2  0  0  0  0
  7  8  2  0  0  0  0
  8  9  1  0  0  0  0
  9 10  2  0  0  0  0
 10 11  1  0  0  0  0
 11 12  2  0  0  0  0
  7 12  1  0  0  0  0
 10 13  1  0  0  0  0
 13 14  2  0  0  0  0
 13 15  1  0  0  0  0
 15 16  1  0  0  0  0
 16 17  2  0  0  0  0
 17 18  1  0  0  0  0
 18 19  2  0  0  0  0
 19 20  1  0  0  0  0
 20 21  2  0  0  0  0
 16 21  1  0  0  0  0
 22 23  3  0  0  0  0
  7 22  1  0  0  0  0
  1 20  1  0  0  0  0
  1 24  1  6  0  0  0
  5 25  1  0  0  0  0
 19 26  1  0  0  0  0
  2 27  1  1  0  0  0
M  END
> <MoleculeName>
CHEMBL4229101

> <pCHEMBL>
7.08

> <AssayDescription>
Inhibition of recombinant human BACE1 (43 to 454 residues) expressed in Escherichia coli BL21(DE3) using Biotin-epsilon-amino-n-capronic acid-SEVNLDAEFRHDSGC-Eu after 3 hrs by HTRF assay

> <PubmedId>
29775538

> <DocumentType>
PUBLICATION

> <TargetName>
Beta-secretase 1

> <TargetChemblId>
CHEMBL4822

> <TargetOrganism>
Homo sapiens

> <TargetComponentGenes>
BACE1

> <PDB>
7d2x

> <Order>
790

> <spe_1>
0.3543473

> <spe_2>
0.02589781

> <Scaffold>
6

$$$$
