
  -OEChem-06092216122D

 29 31  0     1  0  0  0  0  0999 V2000
   30.8180   -9.2078    0.0000 C   0  0  3  0  0  0  0  0  0  0  0  0
   31.5238   -8.7951    0.0000 C   0  0  0  0  0  0  0  0  0  0  0  0
   31.5192   -7.9821    0.0000 C   0  0  0  0  0  0  0  0  0  0  0  0
   30.8106   -7.5756    0.0000 O   0  0  0  0  0  0  0  0  0  0  0  0
   30.1048   -7.9883    0.0000 C   0  0  0  0  0  0  0  0  0  0  0  0
   30.1077   -8.8075    0.0000 N   0  0  0  0  0  0  0  0  0  0  0  0
   25.1664   -8.4071    0.0000 C   0  0  0  0  0  0  0  0  0  0  0  0
   25.1653   -9.2267    0.0000 C   0  0  0  0  0  0  0  0  0  0  0  0
   25.8733   -9.6356    0.0000 C   0  0  0  0  0  0  0  0  0  0  0  0
   26.5830   -9.2262    0.0000 C   0  0  0  0  0  0  0  0  0  0  0  0
   26.5802   -8.4035    0.0000 N   0  0  0  0  0  0  0  0  0  0  0  0
   25.8715   -7.9983    0.0000 C   0  0  0  0  0  0  0  0  0  0  0  0
   24.4552   -7.9969    0.0000 C   0  0  0  0  0  0  0  0  0  0  0  0
   23.7474   -7.5885    0.0000 N   0  0  0  0  0  0  0  0  0  0  0  0
   27.2913   -9.6337    0.0000 C   0  0  0  0  0  0  0  0  0  0  0  0
   27.2926  -10.4509    0.0000 O   0  0  0  0  0  0  0  0  0  0  0  0
   27.9984   -9.2240    0.0000 N   0  0  0  0  0  0  0  0  0  0  0  0
   28.7067   -9.6315    0.0000 C   0  0  0  0  0  0  0  0  0  0  0  0
   28.7034  -10.4471    0.0000 C   0  0  0  0  0  0  0  0  0  0  0  0
   29.4109  -10.8545    0.0000 C   0  0  0  0  0  0  0  0  0  0  0  0
   30.1190  -10.4447    0.0000 C   0  0  0  0  0  0  0  0  0  0  0  0
   30.1150   -9.6233    0.0000 C   0  0  0  0  0  0  0  0  0  0  0  0
   29.4070   -9.2196    0.0000 C   0  0  0  0  0  0  0  0  0  0  0  0
   30.8279  -10.8513    0.0000 F   0  0  0  0  0  0  0  0  0  0  0  0
   29.3953   -7.5829    0.0000 N   0  0  0  0  0  0  0  0  0  0  0  0
   31.5238   -9.6164    0.0000 C   0  0  0  0  0  0  0  0  0  0  0  0
   32.2252   -7.5705    0.0000 C   0  0  0  0  0  0  0  0  0  0  0  0
   32.9347   -7.9762    0.0000 F   0  0  0  0  0  0  0  0  0  0  0  0
   25.8731  -10.4528    0.0000 Cl  0  0  0  0  0  0  0  0  0  0  0  0
  1  2  1  0  0  0  0
  1  6  1  0  0  0  0
  2  3  2  0  0  0  0
  3  4  1  0  0  0  0
  4  5  1  0  0  0  0
  5  6  2  0  0  0  0
  7  8  2  0  0  0  0
  8  9  1  0  0  0  0
  9 10  2  0  0  0  0
 10 11  1  0  0  0  0
 11 12  2  0  0  0  0
  7 12  1  0  0  0  0
 13 14  3  0  0  0  0
  7 13  1  0  0  0  0
 10 15  1  0  0  0  0
 15 16  2  0  0  0  0
 15 17  1  0  0  0  0
 17 18  1  0  0  0  0
 18 19  2  0  0  0  0
 19 20  1  0  0  0  0
 20 21  2  0  0  0  0
 21 22  1  0  0  0  0
 22 23  2  0  0  0  0
 18 23  1  0  0  0  0
 21 24  1  0  0  0  0
  1 22  1  0  0  0  0
  5 25  1  0  0  0  0
  1 26  1  6  0  0  0
  3 27  1  0  0  0  0
 27 28  1  0  0  0  0
  9 29  1  0  0  0  0
M  END
> <MoleculeName>
CHEMBL4207962

> <pCHEMBL>
7.02

> <AssayDescription>
Inhibition of human recombinant BACE1 (43 to 545 residues) expressed in Escherichia coli BL21(DE3) using APP Swedish Lys-Met/Asn-Leu mutant as substrate incubated for 3 hrs by HTRF assay

> <PubmedId>
29733614

> <DocumentType>
PUBLICATION

> <TargetName>
Beta-secretase 1

> <TargetChemblId>
CHEMBL4822

> <TargetOrganism>
Homo sapiens

> <TargetComponentGenes>
BACE1

> <PDB>
7d2x

> <Order>
2025

> <spe_1>
0.7709556

> <spe_2>
-0.1957901

> <Scaffold>
5

$$$$
