
  -OEChem-06092216122D

 30 32  0     1  0  0  0  0  0999 V2000
    8.7002  -13.7478    0.0000 C   0  0  3  0  0  0  0  0  0  0  0  0
    9.4060  -13.3351    0.0000 C   0  0  3  0  0  0  0  0  0  0  0  0
    9.4014  -12.5220    0.0000 C   0  0  3  0  0  0  0  0  0  0  0  0
    8.6928  -12.1155    0.0000 O   0  0  0  0  0  0  0  0  0  0  0  0
    7.9870  -12.5282    0.0000 C   0  0  0  0  0  0  0  0  0  0  0  0
    7.9899  -13.3475    0.0000 N   0  0  0  0  0  0  0  0  0  0  0  0
    3.0486  -12.9471    0.0000 C   0  0  0  0  0  0  0  0  0  0  0  0
    3.0475  -13.7666    0.0000 C   0  0  0  0  0  0  0  0  0  0  0  0
    3.7555  -14.1756    0.0000 C   0  0  0  0  0  0  0  0  0  0  0  0
    4.4652  -13.7661    0.0000 C   0  0  0  0  0  0  0  0  0  0  0  0
    4.4623  -12.9435    0.0000 N   0  0  0  0  0  0  0  0  0  0  0  0
    3.7537  -12.5382    0.0000 C   0  0  0  0  0  0  0  0  0  0  0  0
    5.1735  -14.1736    0.0000 C   0  0  0  0  0  0  0  0  0  0  0  0
    5.1748  -14.9908    0.0000 O   0  0  0  0  0  0  0  0  0  0  0  0
    5.8806  -13.7639    0.0000 N   0  0  0  0  0  0  0  0  0  0  0  0
    6.5889  -14.1714    0.0000 C   0  0  0  0  0  0  0  0  0  0  0  0
    6.5856  -14.9870    0.0000 C   0  0  0  0  0  0  0  0  0  0  0  0
    7.2931  -15.3944    0.0000 C   0  0  0  0  0  0  0  0  0  0  0  0
    8.0011  -14.9847    0.0000 C   0  0  0  0  0  0  0  0  0  0  0  0
    7.9972  -14.1633    0.0000 C   0  0  0  0  0  0  0  0  0  0  0  0
    7.2891  -13.7596    0.0000 C   0  0  0  0  0  0  0  0  0  0  0  0
    2.3374  -12.5369    0.0000 C   0  0  0  0  0  0  0  0  0  0  0  0
    1.6296  -12.1284    0.0000 N   0  0  0  0  0  0  0  0  0  0  0  0
    9.4126  -14.1561    0.0000 C   0  0  0  0  0  0  0  0  0  0  0  0
    7.2774  -12.1229    0.0000 N   0  0  0  0  0  0  0  0  0  0  0  0
    8.7100  -15.3912    0.0000 F   0  0  0  0  0  0  0  0  0  0  0  0
   10.1159  -13.7397    0.0000 F   0  0  0  0  0  0  0  0  0  0  0  0
   10.1074  -12.1105    0.0000 C   0  0  0  0  0  0  0  0  0  0  0  0
   10.1040  -11.2933    0.0000 O   0  0  0  0  0  0  0  0  0  0  0  0
   10.8100  -10.8817    0.0000 C   0  0  0  0  0  0  0  0  0  0  0  0
  1  2  1  0  0  0  0
  1  6  1  0  0  0  0
  2  3  1  0  0  0  0
  3  4  1  0  0  0  0
  4  5  1  0  0  0  0
  5  6  2  0  0  0  0
  7  8  2  0  0  0  0
  8  9  1  0  0  0  0
  9 10  2  0  0  0  0
 10 11  1  0  0  0  0
 11 12  2  0  0  0  0
  7 12  1  0  0  0  0
 10 13  1  0  0  0  0
 13 14  2  0  0  0  0
 13 15  1  0  0  0  0
 15 16  1  0  0  0  0
 16 17  2  0  0  0  0
 17 18  1  0  0  0  0
 18 19  2  0  0  0  0
 19 20  1  0  0  0  0
 20 21  2  0  0  0  0
 16 21  1  0  0  0  0
 22 23  3  0  0  0  0
  7 22  1  0  0  0  0
  1 20  1  0  0  0  0
  1 24  1  6  0  0  0
  5 25  1  0  0  0  0
 19 26  1  0  0  0  0
  2 27  1  6  0  0  0
  3 28  1  6  0  0  0
 28 29  1  0  0  0  0
 29 30  1  0  0  0  0
M  END
> <MoleculeName>
CHEMBL4226208

> <pCHEMBL>
7.59

> <AssayDescription>
Inhibition of recombinant human BACE1 (43 to 454 residues) expressed in Escherichia coli BL21(DE3) using Biotin-epsilon-amino-n-capronic acid-SEVNLDAEFRHDSGC-Eu after 3 hrs by HTRF assay

> <PubmedId>
29775538

> <DocumentType>
PUBLICATION

> <TargetName>
Beta-secretase 1

> <TargetChemblId>
CHEMBL4822

> <TargetOrganism>
Homo sapiens

> <TargetComponentGenes>
BACE1

> <PDB>
7d2x

> <Order>
1021

> <spe_1>
0.2955593

> <spe_2>
-0.1905467

> <Scaffold>
6

$$$$
