
  -OEChem-06092216122D

 31 34  0     0  0  0  0  0  0999 V2000
   -3.3597   -0.8315    0.0000 C   0  0  0  0  0  0  0  0  0  0  0  0
   -3.3597   -0.0065    0.0000 N   0  0  0  0  0  0  0  0  0  0  0  0
   -2.6452    0.4060    0.0000 C   0  0  0  0  0  0  0  0  0  0  0  0
   -2.6452    1.2310    0.0000 O   0  0  0  0  0  0  0  0  0  0  0  0
   -1.9307   -0.0065    0.0000 C   0  0  0  0  0  0  0  0  0  0  0  0
   -1.2163    0.4060    0.0000 C   0  0  0  0  0  0  0  0  0  0  0  0
   -0.5018   -0.0065    0.0000 N   0  0  0  0  0  0  0  0  0  0  0  0
    0.2127    0.4060    0.0000 C   0  0  0  0  0  0  0  0  0  0  0  0
    0.9271   -0.0065    0.0000 C   0  0  0  0  0  0  0  0  0  0  0  0
    1.6416    0.4060    0.0000 C   0  0  0  0  0  0  0  0  0  0  0  0
    2.3561   -0.0065    0.0000 C   0  0  0  0  0  0  0  0  0  0  0  0
    3.0706    0.4060    0.0000 C   0  0  0  0  0  0  0  0  0  0  0  0
    3.0706    1.2310    0.0000 O   0  0  0  0  0  0  0  0  0  0  0  0
    3.7850   -0.0065    0.0000 C   0  0  0  0  0  0  0  0  0  0  0  0
    4.4995    0.4060    0.0000 C   0  0  0  0  0  0  0  0  0  0  0  0
    5.2140   -0.0065    0.0000 C   0  0  0  0  0  0  0  0  0  0  0  0
    5.2140   -0.8315    0.0000 C   0  0  0  0  0  0  0  0  0  0  0  0
    4.4995   -1.2440    0.0000 C   0  0  0  0  0  0  0  0  0  0  0  0
    3.7850   -0.8315    0.0000 C   0  0  0  0  0  0  0  0  0  0  0  0
    2.3561   -0.8315    0.0000 C   0  0  0  0  0  0  0  0  0  0  0  0
    1.6416   -1.2440    0.0000 C   0  0  0  0  0  0  0  0  0  0  0  0
    0.9271   -0.8315    0.0000 C   0  0  0  0  0  0  0  0  0  0  0  0
    0.2127   -1.2440    0.0000 N   0  0  0  0  0  0  0  0  0  0  0  0
   -0.5018   -0.8315    0.0000 C   0  0  0  0  0  0  0  0  0  0  0  0
   -1.2163   -1.2440    0.0000 N   0  0  0  0  0  0  0  0  0  0  0  0
   -4.0742    0.4060    0.0000 C   0  0  0  0  0  0  0  0  0  0  0  0
   -4.7886   -0.0065    0.0000 C   0  0  0  0  0  0  0  0  0  0  0  0
   -5.5031    0.4060    0.0000 C   0  0  0  0  0  0  0  0  0  0  0  0
   -5.5031    1.2310    0.0000 C   0  0  0  0  0  0  0  0  0  0  0  0
   -4.7886    1.6435    0.0000 C   0  0  0  0  0  0  0  0  0  0  0  0
   -4.0742    1.2310    0.0000 C   0  0  0  0  0  0  0  0  0  0  0  0
  1  2  1  0  0  0  0
  2 26  1  0  0  0  0
  2  3  1  0  0  0  0
  3  4  2  0  0  0  0
  3  5  1  0  0  0  0
  5  6  1  0  0  0  0
  6  7  1  0  0  0  0
  7 24  1  0  0  0  0
  7  8  1  0  0  0  0
  8  9  1  0  0  0  0
  9 10  2  0  0  0  0
  9 22  1  0  0  0  0
 10 11  1  0  0  0  0
 11 12  1  0  0  0  0
 11 20  2  0  0  0  0
 12 14  1  0  0  0  0
 12 13  2  0  0  0  0
 14 15  2  0  0  0  0
 14 19  1  0  0  0  0
 15 16  1  0  0  0  0
 16 17  2  0  0  0  0
 17 18  1  0  0  0  0
 18 19  2  0  0  0  0
 20 21  1  0  0  0  0
 21 22  2  0  0  0  0
 22 23  1  0  0  0  0
 23 24  2  0  0  0  0
 24 25  1  0  0  0  0
 26 27  1  0  0  0  0
 26 31  1  0  0  0  0
 27 28  1  0  0  0  0
 28 29  1  0  0  0  0
 29 30  1  0  0  0  0
 30 31  1  0  0  0  0
M  END
> <MoleculeName>
CHEMBL244342

> <pCHEMBL>
6.05

> <AssayDescription>
Inhibition of BACE1

> <PubmedId>
17685503

> <DocumentType>
PUBLICATION

> <TargetName>
Beta-secretase 1

> <TargetChemblId>
CHEMBL4822

> <TargetOrganism>
Homo sapiens

> <TargetComponentGenes>
BACE1

> <PDB>
2q11

> <Order>
84

> <spe_1>
-1.490355

> <spe_2>
0.4641096

> <Scaffold>
1

$$$$
