
  -OEChem-06092216122D

 30 32  0     1  0  0  0  0  0999 V2000
    8.2833  -18.7830    0.0000 C   0  0  3  0  0  0  0  0  0  0  0  0
    8.9891  -18.3703    0.0000 C   0  0  3  0  0  0  0  0  0  0  0  0
    8.9846  -17.5572    0.0000 C   0  0  3  0  0  0  0  0  0  0  0  0
    8.2759  -17.1507    0.0000 O   0  0  0  0  0  0  0  0  0  0  0  0
    7.5702  -17.5635    0.0000 C   0  0  0  0  0  0  0  0  0  0  0  0
    7.5731  -18.3827    0.0000 N   0  0  0  0  0  0  0  0  0  0  0  0
    2.6318  -17.9823    0.0000 C   0  0  0  0  0  0  0  0  0  0  0  0
    2.6306  -18.8018    0.0000 N   0  0  0  0  0  0  0  0  0  0  0  0
    3.3387  -19.2108    0.0000 C   0  0  0  0  0  0  0  0  0  0  0  0
    4.0483  -18.8014    0.0000 C   0  0  0  0  0  0  0  0  0  0  0  0
    4.0455  -17.9787    0.0000 N   0  0  0  0  0  0  0  0  0  0  0  0
    3.3369  -17.5734    0.0000 C   0  0  0  0  0  0  0  0  0  0  0  0
    4.7567  -19.2088    0.0000 C   0  0  0  0  0  0  0  0  0  0  0  0
    4.7579  -20.0260    0.0000 O   0  0  0  0  0  0  0  0  0  0  0  0
    5.4637  -18.7991    0.0000 N   0  0  0  0  0  0  0  0  0  0  0  0
    6.1721  -19.2066    0.0000 C   0  0  0  0  0  0  0  0  0  0  0  0
    6.1687  -20.0223    0.0000 C   0  0  0  0  0  0  0  0  0  0  0  0
    6.8763  -20.4297    0.0000 C   0  0  0  0  0  0  0  0  0  0  0  0
    7.5843  -20.0199    0.0000 C   0  0  0  0  0  0  0  0  0  0  0  0
    7.5804  -19.1985    0.0000 C   0  0  0  0  0  0  0  0  0  0  0  0
    6.8723  -18.7948    0.0000 C   0  0  0  0  0  0  0  0  0  0  0  0
    8.9958  -19.1913    0.0000 C   0  0  0  0  0  0  0  0  0  0  0  0
    6.8606  -17.1581    0.0000 N   0  0  0  0  0  0  0  0  0  0  0  0
    8.2932  -20.4265    0.0000 F   0  0  0  0  0  0  0  0  0  0  0  0
    9.6991  -18.7749    0.0000 F   0  0  0  0  0  0  0  0  0  0  0  0
    9.6906  -17.1457    0.0000 C   0  0  0  0  0  0  0  0  0  0  0  0
    9.6872  -16.3285    0.0000 F   0  0  0  0  0  0  0  0  0  0  0  0
    1.9239  -17.5739    0.0000 C   0  0  0  0  0  0  0  0  0  0  0  0
    1.9238  -16.7567    0.0000 F   0  0  0  0  0  0  0  0  0  0  0  0
    1.2163  -17.9826    0.0000 F   0  0  0  0  0  0  0  0  0  0  0  0
  1  2  1  0  0  0  0
  1  6  1  0  0  0  0
  2  3  1  0  0  0  0
  3  4  1  0  0  0  0
  4  5  1  0  0  0  0
  5  6  2  0  0  0  0
  7  8  2  0  0  0  0
  8  9  1  0  0  0  0
  9 10  2  0  0  0  0
 10 11  1  0  0  0  0
 11 12  2  0  0  0  0
  7 12  1  0  0  0  0
 10 13  1  0  0  0  0
 13 14  2  0  0  0  0
 13 15  1  0  0  0  0
 15 16  1  0  0  0  0
 16 17  2  0  0  0  0
 17 18  1  0  0  0  0
 18 19  2  0  0  0  0
 19 20  1  0  0  0  0
 20 21  2  0  0  0  0
 16 21  1  0  0  0  0
  1 20  1  0  0  0  0
  1 22  1  6  0  0  0
  5 23  1  0  0  0  0
 19 24  1  0  0  0  0
  2 25  1  6  0  0  0
  3 26  1  6  0  0  0
 26 27  1  0  0  0  0
  7 28  1  0  0  0  0
 28 29  1  0  0  0  0
 28 30  1  0  0  0  0
M  END
> <MoleculeName>
CHEMBL4226730

> <pCHEMBL>
7.56

> <AssayDescription>
Inhibition of recombinant human BACE1 (43 to 454 residues) expressed in Escherichia coli BL21(DE3) using Biotin-epsilon-amino-n-capronic acid-SEVNLDAEFRHDSGC-Eu after 3 hrs by HTRF assay

> <PubmedId>
29775538

> <DocumentType>
PUBLICATION

> <TargetName>
Beta-secretase 1

> <TargetChemblId>
CHEMBL4822

> <TargetOrganism>
Homo sapiens

> <TargetComponentGenes>
BACE1

> <PDB>
7d2x

> <Order>
1130

> <spe_1>
0.3922813

> <spe_2>
-0.4706059

> <Scaffold>
6

$$$$
