
  -OEChem-06092216122D

 25 27  0     1  0  0  0  0  0999 V2000
    1.6070  -17.6631    0.0000 C   0  0  0  0  0  0  0  0  0  0  0  0
    1.6058  -18.4904    0.0000 C   0  0  0  0  0  0  0  0  0  0  0  0
    2.3206  -18.9033    0.0000 C   0  0  0  0  0  0  0  0  0  0  0  0
    3.0371  -18.4899    0.0000 C   0  0  0  0  0  0  0  0  0  0  0  0
    3.0342  -17.6594    0.0000 N   0  0  0  0  0  0  0  0  0  0  0  0
    2.3188  -17.2502    0.0000 C   0  0  0  0  0  0  0  0  0  0  0  0
    3.7522  -18.9013    0.0000 C   0  0  0  0  0  0  0  0  0  0  0  0
    3.7535  -19.7263    0.0000 O   0  0  0  0  0  0  0  0  0  0  0  0
    4.4661  -18.4877    0.0000 N   0  0  0  0  0  0  0  0  0  0  0  0
    5.1812  -18.8991    0.0000 C   0  0  0  0  0  0  0  0  0  0  0  0
    5.1779  -19.7225    0.0000 C   0  0  0  0  0  0  0  0  0  0  0  0
    5.8922  -20.1339    0.0000 C   0  0  0  0  0  0  0  0  0  0  0  0
    6.6069  -19.7202    0.0000 C   0  0  0  0  0  0  0  0  0  0  0  0
    6.6030  -18.8909    0.0000 C   0  0  0  0  0  0  0  0  0  0  0  0
    5.8881  -18.4833    0.0000 C   0  0  0  0  0  0  0  0  0  0  0  0
    7.3154  -18.4748    0.0000 C   0  0  3  0  0  0  0  0  0  0  0  0
    0.8924  -17.2507    0.0000 Cl  0  0  0  0  0  0  0  0  0  0  0  0
    8.0272  -18.8866    0.0000 C   0  0  0  0  0  0  0  0  0  0  0  0
    8.7375  -18.4740    0.0000 O   0  0  0  0  0  0  0  0  0  0  0  0
    8.7376  -17.6485    0.0000 C   0  0  0  0  0  0  0  0  0  0  0  0
    8.0211  -17.2375    0.0000 C   0  0  0  0  0  0  0  0  0  0  0  0
    7.3047  -17.6517    0.0000 N   0  0  0  0  0  0  0  0  0  0  0  0
    7.3086  -19.2965    0.0000 C   0  0  0  0  0  0  0  0  0  0  0  0
    8.0198  -16.4125    0.0000 N   0  0  0  0  0  0  0  0  0  0  0  0
    7.3226  -20.1306    0.0000 F   0  0  0  0  0  0  0  0  0  0  0  0
  1  2  2  0  0  0  0
  2  3  1  0  0  0  0
  3  4  2  0  0  0  0
  4  5  1  0  0  0  0
  5  6  2  0  0  0  0
  1  6  1  0  0  0  0
  4  7  1  0  0  0  0
  7  8  2  0  0  0  0
  7  9  1  0  0  0  0
  9 10  1  0  0  0  0
 10 11  2  0  0  0  0
 11 12  1  0  0  0  0
 12 13  2  0  0  0  0
 13 14  1  0  0  0  0
 14 15  2  0  0  0  0
 10 15  1  0  0  0  0
 16 14  1  1  0  0  0
  1 17  1  0  0  0  0
 16 18  1  0  0  0  0
 16 22  1  0  0  0  0
 18 19  1  0  0  0  0
 19 20  1  0  0  0  0
 20 21  1  0  0  0  0
 21 22  2  0  0  0  0
 16 23  1  0  0  0  0
 21 24  1  0  0  0  0
 13 25  1  0  0  0  0
M  END
> <MoleculeName>
CHEMBL2403769

> <pCHEMBL>
7.66

> <AssayDescription>
Inhibition of BACE1 (unknown origin) using APP Swedish mutant harboring Lys-Met/Asn-Leu mutation in beta-secretase cleavage site as substrate by FRET assay

> <PubmedId>
26378740

> <DocumentType>
PUBLICATION

> <TargetName>
Beta-secretase 1

> <TargetChemblId>
CHEMBL4822

> <TargetOrganism>
Homo sapiens

> <TargetComponentGenes>
BACE1

> <PDB>
5clm

> <Order>
2004

> <spe_1>
0.003454738

> <spe_2>
0.3610827

> <Scaffold>
4

$$$$
