
  -OEChem-06092216122D

 32 35  0     1  0  0  0  0  0999 V2000
   43.5794  -17.4623    0.0000 C   0  0  0  0  0  0  0  0  0  0  0  0
   43.9921  -18.1722    0.0000 C   0  0  0  0  0  0  0  0  0  0  0  0
   44.4005  -17.4598    0.0000 C   0  0  0  0  0  0  0  0  0  0  0  0
   42.5889  -19.8107    0.0000 C   0  0  3  0  0  0  0  0  0  0  0  0
   43.2946  -19.3980    0.0000 C   0  0  3  0  0  0  0  0  0  0  0  0
   43.2901  -18.5849    0.0000 C   0  0  3  0  0  0  0  0  0  0  0  0
   42.5814  -18.1784    0.0000 O   0  0  0  0  0  0  0  0  0  0  0  0
   41.8757  -18.5911    0.0000 C   0  0  0  0  0  0  0  0  0  0  0  0
   41.8786  -19.4104    0.0000 N   0  0  0  0  0  0  0  0  0  0  0  0
   36.9373  -19.0100    0.0000 C   0  0  0  0  0  0  0  0  0  0  0  0
   36.9361  -19.8295    0.0000 N   0  0  0  0  0  0  0  0  0  0  0  0
   37.6442  -20.2385    0.0000 C   0  0  0  0  0  0  0  0  0  0  0  0
   38.3538  -19.8290    0.0000 C   0  0  0  0  0  0  0  0  0  0  0  0
   38.3510  -19.0064    0.0000 N   0  0  0  0  0  0  0  0  0  0  0  0
   37.6424  -18.6011    0.0000 C   0  0  0  0  0  0  0  0  0  0  0  0
   39.0622  -20.2365    0.0000 C   0  0  0  0  0  0  0  0  0  0  0  0
   39.0635  -21.0537    0.0000 O   0  0  0  0  0  0  0  0  0  0  0  0
   39.7693  -19.8268    0.0000 N   0  0  0  0  0  0  0  0  0  0  0  0
   40.4776  -20.2343    0.0000 C   0  0  0  0  0  0  0  0  0  0  0  0
   40.4743  -21.0499    0.0000 C   0  0  0  0  0  0  0  0  0  0  0  0
   41.1818  -21.4573    0.0000 C   0  0  0  0  0  0  0  0  0  0  0  0
   41.8898  -21.0476    0.0000 C   0  0  0  0  0  0  0  0  0  0  0  0
   41.8859  -20.2262    0.0000 C   0  0  0  0  0  0  0  0  0  0  0  0
   41.1778  -19.8225    0.0000 C   0  0  0  0  0  0  0  0  0  0  0  0
   43.3013  -20.2190    0.0000 C   0  0  0  0  0  0  0  0  0  0  0  0
   41.1661  -18.1858    0.0000 N   0  0  0  0  0  0  0  0  0  0  0  0
   42.5987  -21.4541    0.0000 F   0  0  0  0  0  0  0  0  0  0  0  0
   44.0046  -19.8026    0.0000 F   0  0  0  0  0  0  0  0  0  0  0  0
   36.2295  -18.6016    0.0000 O   0  0  0  0  0  0  0  0  0  0  0  0
   35.5219  -19.0103    0.0000 C   0  0  0  0  0  0  0  0  0  0  0  0
   34.8141  -18.6019    0.0000 F   0  0  0  0  0  0  0  0  0  0  0  0
   44.7055  -18.5790    0.0000 F   0  0  0  0  0  0  0  0  0  0  0  0
  1  2  1  0  0  0  0
  2  3  1  0  0  0  0
  1  3  1  0  0  0  0
  4  5  1  0  0  0  0
  4  9  1  0  0  0  0
  5  6  1  0  0  0  0
  6  7  1  0  0  0  0
  7  8  1  0  0  0  0
  8  9  2  0  0  0  0
 10 11  2  0  0  0  0
 11 12  1  0  0  0  0
 12 13  2  0  0  0  0
 13 14  1  0  0  0  0
 14 15  2  0  0  0  0
 10 15  1  0  0  0  0
 13 16  1  0  0  0  0
 16 17  2  0  0  0  0
 16 18  1  0  0  0  0
 18 19  1  0  0  0  0
 19 20  2  0  0  0  0
 20 21  1  0  0  0  0
 21 22  2  0  0  0  0
 22 23  1  0  0  0  0
 23 24  2  0  0  0  0
 19 24  1  0  0  0  0
  4 23  1  0  0  0  0
  4 25  1  6  0  0  0
  8 26  1  0  0  0  0
 22 27  1  0  0  0  0
  5 28  1  6  0  0  0
  6  2  1  6  0  0  0
 10 29  1  0  0  0  0
 29 30  1  0  0  0  0
 30 31  1  0  0  0  0
  2 32  1  0  0  0  0
M  END
> <MoleculeName>
CHEMBL4227851

> <pCHEMBL>
7.69

> <AssayDescription>
Inhibition of recombinant human BACE1 (43 to 454 residues) expressed in Escherichia coli BL21(DE3) using Biotin-epsilon-amino-n-capronic acid-SEVNLDAEFRHDSGC-Eu after 3 hrs by HTRF assay

> <PubmedId>
29775538

> <DocumentType>
PUBLICATION

> <TargetName>
Beta-secretase 1

> <TargetChemblId>
CHEMBL4822

> <TargetOrganism>
Homo sapiens

> <TargetComponentGenes>
BACE1

> <PDB>
7d2x

> <Order>
1345

> <spe_1>
0.4849667

> <spe_2>
-0.7568986

> <Scaffold>
6

$$$$
