
  -OEChem-06092216122D

 28 30  0     1  0  0  0  0  0999 V2000
   19.3484   -9.5174    0.0000 C   0  0  3  0  0  0  0  0  0  0  0  0
   20.0542   -9.1047    0.0000 C   0  0  0  0  0  0  0  0  0  0  0  0
   20.0497   -8.2916    0.0000 C   0  0  0  0  0  0  0  0  0  0  0  0
   19.3410   -7.8851    0.0000 O   0  0  0  0  0  0  0  0  0  0  0  0
   18.6353   -8.2978    0.0000 C   0  0  0  0  0  0  0  0  0  0  0  0
   18.6382   -9.1171    0.0000 N   0  0  0  0  0  0  0  0  0  0  0  0
   13.6969   -8.7167    0.0000 C   0  0  0  0  0  0  0  0  0  0  0  0
   13.6957   -9.5362    0.0000 C   0  0  0  0  0  0  0  0  0  0  0  0
   14.4038   -9.9452    0.0000 C   0  0  0  0  0  0  0  0  0  0  0  0
   15.1134   -9.5357    0.0000 C   0  0  0  0  0  0  0  0  0  0  0  0
   15.1106   -8.7131    0.0000 N   0  0  0  0  0  0  0  0  0  0  0  0
   14.4020   -8.3078    0.0000 C   0  0  0  0  0  0  0  0  0  0  0  0
   12.9857   -8.3065    0.0000 C   0  0  0  0  0  0  0  0  0  0  0  0
   12.2779   -7.8980    0.0000 N   0  0  0  0  0  0  0  0  0  0  0  0
   15.8218   -9.9432    0.0000 C   0  0  0  0  0  0  0  0  0  0  0  0
   15.8230  -10.7604    0.0000 O   0  0  0  0  0  0  0  0  0  0  0  0
   16.5288   -9.5335    0.0000 N   0  0  0  0  0  0  0  0  0  0  0  0
   17.2372   -9.9410    0.0000 C   0  0  0  0  0  0  0  0  0  0  0  0
   17.2338  -10.7566    0.0000 C   0  0  0  0  0  0  0  0  0  0  0  0
   17.9414  -11.1640    0.0000 C   0  0  0  0  0  0  0  0  0  0  0  0
   18.6494  -10.7543    0.0000 C   0  0  0  0  0  0  0  0  0  0  0  0
   18.6455   -9.9329    0.0000 C   0  0  0  0  0  0  0  0  0  0  0  0
   17.9374   -9.5292    0.0000 C   0  0  0  0  0  0  0  0  0  0  0  0
   19.3583  -11.1608    0.0000 F   0  0  0  0  0  0  0  0  0  0  0  0
   17.9257   -7.8925    0.0000 N   0  0  0  0  0  0  0  0  0  0  0  0
   20.0542   -9.9260    0.0000 C   0  0  0  0  0  0  0  0  0  0  0  0
   20.7557   -7.8801    0.0000 C   0  0  0  0  0  0  0  0  0  0  0  0
   21.4651   -8.2857    0.0000 F   0  0  0  0  0  0  0  0  0  0  0  0
  1  2  1  0  0  0  0
  1  6  1  0  0  0  0
  2  3  2  0  0  0  0
  3  4  1  0  0  0  0
  4  5  1  0  0  0  0
  5  6  2  0  0  0  0
  7  8  2  0  0  0  0
  8  9  1  0  0  0  0
  9 10  2  0  0  0  0
 10 11  1  0  0  0  0
 11 12  2  0  0  0  0
  7 12  1  0  0  0  0
 13 14  3  0  0  0  0
  7 13  1  0  0  0  0
 10 15  1  0  0  0  0
 15 16  2  0  0  0  0
 15 17  1  0  0  0  0
 17 18  1  0  0  0  0
 18 19  2  0  0  0  0
 19 20  1  0  0  0  0
 20 21  2  0  0  0  0
 21 22  1  0  0  0  0
 22 23  2  0  0  0  0
 18 23  1  0  0  0  0
 21 24  1  0  0  0  0
  1 22  1  0  0  0  0
  5 25  1  0  0  0  0
  1 26  1  6  0  0  0
  3 27  1  0  0  0  0
 27 28  1  0  0  0  0
M  END
> <MoleculeName>
CHEMBL4213486

> <pCHEMBL>
7.23

> <AssayDescription>
Inhibition of human recombinant BACE1 (43 to 545 residues) expressed in Escherichia coli BL21(DE3) using APP Swedish Lys-Met/Asn-Leu mutant as substrate incubated for 3 hrs by HTRF assay

> <PubmedId>
29733614

> <DocumentType>
PUBLICATION

> <TargetName>
Beta-secretase 1

> <TargetChemblId>
CHEMBL4822

> <TargetOrganism>
Homo sapiens

> <TargetComponentGenes>
BACE1

> <PDB>
7d2x

> <Order>
2030

> <spe_1>
0.6690825

> <spe_2>
-0.1443794

> <Scaffold>
5

$$$$
