
  -OEChem-06092216122D

 29 31  0     1  0  0  0  0  0999 V2000
   20.3637  -21.3956    0.0000 C   0  0  3  0  0  0  0  0  0  0  0  0
   21.0695  -20.9828    0.0000 C   0  0  0  0  0  0  0  0  0  0  0  0
   21.0650  -20.1698    0.0000 C   0  0  0  0  0  0  0  0  0  0  0  0
   20.3563  -19.7633    0.0000 O   0  0  0  0  0  0  0  0  0  0  0  0
   19.6506  -20.1760    0.0000 C   0  0  0  0  0  0  0  0  0  0  0  0
   19.6535  -20.9952    0.0000 N   0  0  0  0  0  0  0  0  0  0  0  0
   14.7122  -20.5948    0.0000 C   0  0  0  0  0  0  0  0  0  0  0  0
   14.7110  -21.4144    0.0000 C   0  0  0  0  0  0  0  0  0  0  0  0
   15.4191  -21.8233    0.0000 C   0  0  0  0  0  0  0  0  0  0  0  0
   16.1287  -21.4139    0.0000 C   0  0  0  0  0  0  0  0  0  0  0  0
   16.1259  -20.5912    0.0000 N   0  0  0  0  0  0  0  0  0  0  0  0
   15.4173  -20.1860    0.0000 C   0  0  0  0  0  0  0  0  0  0  0  0
   14.0010  -20.1846    0.0000 C   0  0  0  0  0  0  0  0  0  0  0  0
   13.2932  -19.7762    0.0000 N   0  0  0  0  0  0  0  0  0  0  0  0
   16.8371  -21.8214    0.0000 C   0  0  0  0  0  0  0  0  0  0  0  0
   16.8383  -22.6386    0.0000 O   0  0  0  0  0  0  0  0  0  0  0  0
   17.5441  -21.4117    0.0000 N   0  0  0  0  0  0  0  0  0  0  0  0
   18.2525  -21.8192    0.0000 C   0  0  0  0  0  0  0  0  0  0  0  0
   18.2491  -22.6348    0.0000 C   0  0  0  0  0  0  0  0  0  0  0  0
   18.9566  -23.0422    0.0000 C   0  0  0  0  0  0  0  0  0  0  0  0
   19.6647  -22.6324    0.0000 C   0  0  0  0  0  0  0  0  0  0  0  0
   19.6608  -21.8110    0.0000 C   0  0  0  0  0  0  0  0  0  0  0  0
   18.9527  -21.4073    0.0000 C   0  0  0  0  0  0  0  0  0  0  0  0
   20.3736  -23.0390    0.0000 F   0  0  0  0  0  0  0  0  0  0  0  0
   18.9410  -19.7706    0.0000 N   0  0  0  0  0  0  0  0  0  0  0  0
   21.0695  -21.8041    0.0000 C   0  0  0  0  0  0  0  0  0  0  0  0
   21.7710  -19.7582    0.0000 C   0  0  0  0  0  0  0  0  0  0  0  0
   22.4804  -20.1639    0.0000 O   0  0  0  0  0  0  0  0  0  0  0  0
   23.1864  -19.7523    0.0000 C   0  0  0  0  0  0  0  0  0  0  0  0
  1  2  1  0  0  0  0
  1  6  1  0  0  0  0
  2  3  2  0  0  0  0
  3  4  1  0  0  0  0
  4  5  1  0  0  0  0
  5  6  2  0  0  0  0
  7  8  2  0  0  0  0
  8  9  1  0  0  0  0
  9 10  2  0  0  0  0
 10 11  1  0  0  0  0
 11 12  2  0  0  0  0
  7 12  1  0  0  0  0
 13 14  3  0  0  0  0
  7 13  1  0  0  0  0
 10 15  1  0  0  0  0
 15 16  2  0  0  0  0
 15 17  1  0  0  0  0
 17 18  1  0  0  0  0
 18 19  2  0  0  0  0
 19 20  1  0  0  0  0
 20 21  2  0  0  0  0
 21 22  1  0  0  0  0
 22 23  2  0  0  0  0
 18 23  1  0  0  0  0
 21 24  1  0  0  0  0
  1 22  1  0  0  0  0
  5 25  1  0  0  0  0
  1 26  1  6  0  0  0
  3 27  1  0  0  0  0
 27 28  1  0  0  0  0
 28 29  1  0  0  0  0
M  END
> <MoleculeName>
CHEMBL4217881

> <pCHEMBL>
7.13

> <AssayDescription>
Inhibition of human recombinant BACE1 (43 to 545 residues) expressed in Escherichia coli BL21(DE3) using APP Swedish Lys-Met/Asn-Leu mutant as substrate incubated for 3 hrs by HTRF assay

> <PubmedId>
29733614

> <DocumentType>
PUBLICATION

> <TargetName>
Beta-secretase 1

> <TargetChemblId>
CHEMBL4822

> <TargetOrganism>
Homo sapiens

> <TargetComponentGenes>
BACE1

> <PDB>
7d2x

> <Order>
2034

> <spe_1>
0.6498243

> <spe_2>
-0.05116935

> <Scaffold>
5

$$$$
