
  -OEChem-06092216122D

 32 34  0     1  0  0  0  0  0999 V2000
   20.4504  -23.8884    0.0000 C   0  0  3  0  0  0  0  0  0  0  0  0
   21.1603  -23.4757    0.0000 C   0  0  3  0  0  0  0  0  0  0  0  0
   21.1558  -22.6585    0.0000 C   0  0  3  0  0  0  0  0  0  0  0  0
   20.4430  -22.2479    0.0000 O   0  0  0  0  0  0  0  0  0  0  0  0
   19.7331  -22.6647    0.0000 C   0  0  0  0  0  0  0  0  0  0  0  0
   19.7360  -23.4881    0.0000 N   0  0  0  0  0  0  0  0  0  0  0  0
   14.7699  -23.0836    0.0000 C   0  0  0  0  0  0  0  0  0  0  0  0
   14.7688  -23.9072    0.0000 N   0  0  0  0  0  0  0  0  0  0  0  0
   15.4810  -24.3203    0.0000 C   0  0  0  0  0  0  0  0  0  0  0  0
   16.1947  -23.9067    0.0000 C   0  0  0  0  0  0  0  0  0  0  0  0
   16.1919  -23.0800    0.0000 N   0  0  0  0  0  0  0  0  0  0  0  0
   15.4792  -22.6747    0.0000 C   0  0  0  0  0  0  0  0  0  0  0  0
   16.9072  -24.3184    0.0000 C   0  0  0  0  0  0  0  0  0  0  0  0
   16.9085  -25.1397    0.0000 O   0  0  0  0  0  0  0  0  0  0  0  0
   17.6184  -23.9045    0.0000 N   0  0  0  0  0  0  0  0  0  0  0  0
   18.3309  -24.3161    0.0000 C   0  0  0  0  0  0  0  0  0  0  0  0
   18.3276  -25.1359    0.0000 C   0  0  0  0  0  0  0  0  0  0  0  0
   19.0351  -25.5433    0.0000 C   0  0  0  0  0  0  0  0  0  0  0  0
   19.7472  -25.1335    0.0000 C   0  0  0  0  0  0  0  0  0  0  0  0
   19.7433  -24.3080    0.0000 C   0  0  0  0  0  0  0  0  0  0  0  0
   19.0311  -23.9002    0.0000 C   0  0  0  0  0  0  0  0  0  0  0  0
   21.1670  -24.3008    0.0000 C   0  0  0  0  0  0  0  0  0  0  0  0
   19.0194  -22.2552    0.0000 N   0  0  0  0  0  0  0  0  0  0  0  0
   20.4603  -25.5401    0.0000 F   0  0  0  0  0  0  0  0  0  0  0  0
   21.8744  -23.8803    0.0000 F   0  0  0  0  0  0  0  0  0  0  0  0
   21.8659  -22.2428    0.0000 C   0  0  3  0  0  0  0  0  0  0  0  0
   14.0580  -22.6751    0.0000 O   0  0  0  0  0  0  0  0  0  0  0  0
   13.3463  -23.0839    0.0000 C   0  0  0  0  0  0  0  0  0  0  0  0
   12.6385  -22.6755    0.0000 F   0  0  0  0  0  0  0  0  0  0  0  0
   21.8625  -21.4215    0.0000 F   0  0  0  0  0  0  0  0  0  0  0  0
   22.5794  -22.6526    0.0000 C   0  0  0  0  0  0  0  0  0  0  0  0
   21.8619  -23.0671    0.0000 H   0  0  0  0  0  0  0  0  0  0  0  0
  1  2  1  0  0  0  0
  1  6  1  0  0  0  0
  2  3  1  0  0  0  0
  3  4  1  0  0  0  0
  4  5  1  0  0  0  0
  5  6  2  0  0  0  0
  7  8  2  0  0  0  0
  8  9  1  0  0  0  0
  9 10  2  0  0  0  0
 10 11  1  0  0  0  0
 11 12  2  0  0  0  0
  7 12  1  0  0  0  0
 10 13  1  0  0  0  0
 13 14  2  0  0  0  0
 13 15  1  0  0  0  0
 15 16  1  0  0  0  0
 16 17  2  0  0  0  0
 17 18  1  0  0  0  0
 18 19  2  0  0  0  0
 19 20  1  0  0  0  0
 20 21  2  0  0  0  0
 16 21  1  0  0  0  0
  1 20  1  0  0  0  0
  1 22  1  6  0  0  0
  5 23  1  0  0  0  0
 19 24  1  0  0  0  0
  2 25  1  6  0  0  0
  3 26  1  0  0  0  0
  7 27  1  0  0  0  0
 27 28  1  0  0  0  0
 28 29  1  0  0  0  0
 26 30  1  6  0  0  0
 26 31  1  0  0  0  0
  3 32  1  1  0  0  0
M  END
> <MoleculeName>
CHEMBL4226007

> <pCHEMBL>
7.93

> <AssayDescription>
Inhibition of recombinant human BACE1 (43 to 454 residues) expressed in Escherichia coli BL21(DE3) using Biotin-epsilon-amino-n-capronic acid-SEVNLDAEFRHDSGC-Eu after 3 hrs by HTRF assay

> <PubmedId>
29775538

> <DocumentType>
PUBLICATION

> <TargetName>
Beta-secretase 1

> <TargetChemblId>
CHEMBL4822

> <TargetOrganism>
Homo sapiens

> <TargetComponentGenes>
BACE1

> <PDB>
7d2x

> <Order>
1235

> <spe_1>
0.4036379

> <spe_2>
-0.7479021

> <Scaffold>
6

$$$$
