
  -OEChem-06092216122D

 30 32  0     1  0  0  0  0  0999 V2000
   19.4929  -13.9872    0.0000 C   0  0  3  0  0  0  0  0  0  0  0  0
   20.1987  -13.5745    0.0000 C   0  0  3  0  0  0  0  0  0  0  0  0
   20.1941  -12.7614    0.0000 C   0  0  3  0  0  0  0  0  0  0  0  0
   19.4855  -12.3549    0.0000 O   0  0  0  0  0  0  0  0  0  0  0  0
   18.7797  -12.7676    0.0000 C   0  0  0  0  0  0  0  0  0  0  0  0
   18.7826  -13.5869    0.0000 N   0  0  0  0  0  0  0  0  0  0  0  0
   13.8413  -13.1865    0.0000 C   0  0  0  0  0  0  0  0  0  0  0  0
   13.8402  -14.0060    0.0000 C   0  0  0  0  0  0  0  0  0  0  0  0
   14.5482  -14.4150    0.0000 C   0  0  0  0  0  0  0  0  0  0  0  0
   15.2579  -14.0055    0.0000 C   0  0  0  0  0  0  0  0  0  0  0  0
   15.2550  -13.1829    0.0000 N   0  0  0  0  0  0  0  0  0  0  0  0
   14.5464  -12.7776    0.0000 C   0  0  0  0  0  0  0  0  0  0  0  0
   15.9662  -14.4130    0.0000 C   0  0  0  0  0  0  0  0  0  0  0  0
   15.9675  -15.2302    0.0000 O   0  0  0  0  0  0  0  0  0  0  0  0
   16.6733  -14.0033    0.0000 N   0  0  0  0  0  0  0  0  0  0  0  0
   17.3816  -14.4108    0.0000 C   0  0  0  0  0  0  0  0  0  0  0  0
   17.3783  -15.2264    0.0000 C   0  0  0  0  0  0  0  0  0  0  0  0
   18.0858  -15.6338    0.0000 C   0  0  0  0  0  0  0  0  0  0  0  0
   18.7938  -15.2241    0.0000 C   0  0  0  0  0  0  0  0  0  0  0  0
   18.7899  -14.4027    0.0000 C   0  0  0  0  0  0  0  0  0  0  0  0
   18.0818  -13.9989    0.0000 C   0  0  0  0  0  0  0  0  0  0  0  0
   13.1301  -12.7762    0.0000 C   0  0  0  0  0  0  0  0  0  0  0  0
   12.4223  -12.3678    0.0000 N   0  0  0  0  0  0  0  0  0  0  0  0
   20.2053  -14.3954    0.0000 C   0  0  0  0  0  0  0  0  0  0  0  0
   18.0701  -12.3623    0.0000 N   0  0  0  0  0  0  0  0  0  0  0  0
   19.5027  -15.6306    0.0000 F   0  0  0  0  0  0  0  0  0  0  0  0
   20.9086  -13.9791    0.0000 F   0  0  0  0  0  0  0  0  0  0  0  0
   20.9001  -12.3499    0.0000 C   0  0  0  0  0  0  0  0  0  0  0  0
   20.8967  -11.5327    0.0000 F   0  0  0  0  0  0  0  0  0  0  0  0
   14.5480  -15.2321    0.0000 Cl  0  0  0  0  0  0  0  0  0  0  0  0
  1  2  1  0  0  0  0
  1  6  1  0  0  0  0
  2  3  1  0  0  0  0
  3  4  1  0  0  0  0
  4  5  1  0  0  0  0
  5  6  2  0  0  0  0
  7  8  2  0  0  0  0
  8  9  1  0  0  0  0
  9 10  2  0  0  0  0
 10 11  1  0  0  0  0
 11 12  2  0  0  0  0
  7 12  1  0  0  0  0
 10 13  1  0  0  0  0
 13 14  2  0  0  0  0
 13 15  1  0  0  0  0
 15 16  1  0  0  0  0
 16 17  2  0  0  0  0
 17 18  1  0  0  0  0
 18 19  2  0  0  0  0
 19 20  1  0  0  0  0
 20 21  2  0  0  0  0
 16 21  1  0  0  0  0
 22 23  3  0  0  0  0
  7 22  1  0  0  0  0
  1 20  1  0  0  0  0
  1 24  1  6  0  0  0
  5 25  1  0  0  0  0
 19 26  1  0  0  0  0
  2 27  1  6  0  0  0
  3 28  1  6  0  0  0
 28 29  1  0  0  0  0
  9 30  1  0  0  0  0
M  END
> <MoleculeName>
CHEMBL4227054

> <pCHEMBL>
7.89

> <AssayDescription>
Inhibition of recombinant human BACE1 (43 to 454 residues) expressed in Escherichia coli BL21(DE3) using Biotin-epsilon-amino-n-capronic acid-SEVNLDAEFRHDSGC-Eu after 3 hrs by HTRF assay

> <PubmedId>
29775538

> <DocumentType>
PUBLICATION

> <TargetName>
Beta-secretase 1

> <TargetChemblId>
CHEMBL4822

> <TargetOrganism>
Homo sapiens

> <TargetComponentGenes>
BACE1

> <PDB>
7d2x

> <Order>
1207

> <spe_1>
0.4370747

> <spe_2>
-0.3144895

> <Scaffold>
6

$$$$
