
  -OEChem-06092216122D

 35 39  0     0  0  0  0  0  0999 V2000
   -2.1431   -5.8125    0.0000 C   0  0  0  0  0  0  0  0  0  0  0  0
   -2.1443   -6.6398    0.0000 C   0  0  0  0  0  0  0  0  0  0  0  0
   -1.4294   -7.0527    0.0000 C   0  0  0  0  0  0  0  0  0  0  0  0
   -1.4312   -5.3997    0.0000 C   0  0  0  0  0  0  0  0  0  0  0  0
   -0.7159   -5.8088    0.0000 C   0  0  0  0  0  0  0  0  0  0  0  0
   -0.7151   -6.6357    0.0000 C   0  0  0  0  0  0  0  0  0  0  0  0
    0.0002   -7.0466    0.0000 N   0  0  0  0  0  0  0  0  0  0  0  0
    0.7152   -6.6319    0.0000 C   0  0  0  0  0  0  0  0  0  0  0  0
    0.7105   -5.8019    0.0000 N   0  0  0  0  0  0  0  0  0  0  0  0
   -0.0054   -5.3947    0.0000 C   0  0  0  0  0  0  0  0  0  0  0  0
    1.4224   -5.3851    0.0000 C   0  0  0  0  0  0  0  0  0  0  0  0
    2.1394   -5.7932    0.0000 C   0  0  0  0  0  0  0  0  0  0  0  0
    2.8513   -5.3764    0.0000 C   0  0  0  0  0  0  0  0  0  0  0  0
    3.5683   -5.7845    0.0000 N   0  0  0  0  0  0  0  0  0  0  0  0
    4.2802   -5.3677    0.0000 C   0  0  0  0  0  0  0  0  0  0  0  0
    4.9995   -5.7807    0.0000 C   0  0  0  0  0  0  0  0  0  0  0  0
    5.7093   -5.3674    0.0000 C   0  0  0  0  0  0  0  0  0  0  0  0
    5.7086   -4.5421    0.0000 C   0  0  0  0  0  0  0  0  0  0  0  0
    4.9917   -4.1317    0.0000 C   0  0  0  0  0  0  0  0  0  0  0  0
    4.2757   -4.5467    0.0000 C   0  0  0  0  0  0  0  0  0  0  0  0
    3.5733   -6.6095    0.0000 C   0  0  0  0  0  0  0  0  0  0  0  0
    1.4313   -7.0416    0.0000 N   0  0  0  0  0  0  0  0  0  0  0  0
   -2.8577   -5.4001    0.0000 O   0  0  0  0  0  0  0  0  0  0  0  0
   -3.5720   -5.8128    0.0000 C   0  0  0  0  0  0  0  0  0  0  0  0
   -4.2865   -5.3987    0.0000 C   0  0  0  0  0  0  0  0  0  0  0  0
   -5.0004   -5.8107    0.0000 C   0  0  0  0  0  0  0  0  0  0  0  0
   -5.0006   -6.6366    0.0000 C   0  0  0  0  0  0  0  0  0  0  0  0
   -4.2810   -7.0488    0.0000 C   0  0  0  0  0  0  0  0  0  0  0  0
   -3.5701   -6.6344    0.0000 C   0  0  0  0  0  0  0  0  0  0  0  0
    1.4174   -4.5601    0.0000 C   0  0  0  0  0  0  0  0  0  0  0  0
    2.1299   -4.1461    0.0000 C   0  0  0  0  0  0  0  0  0  0  0  0
    2.1269   -3.3247    0.0000 C   0  0  0  0  0  0  0  0  0  0  0  0
    1.4117   -2.9127    0.0000 C   0  0  0  0  0  0  0  0  0  0  0  0
    0.6980   -3.3283    0.0000 C   0  0  0  0  0  0  0  0  0  0  0  0
    0.6993   -4.1559    0.0000 C   0  0  0  0  0  0  0  0  0  0  0  0
  4  5  2  0  0  0  0
  8  9  1  0  0  0  0
  1  4  1  0  0  0  0
 15 20  1  0  0  0  0
 16 17  1  0  0  0  0
 17 18  1  0  0  0  0
 18 19  1  0  0  0  0
 19 20  1  0  0  0  0
  9 10  1  0  0  0  0
 14 21  1  0  0  0  0
  5 10  1  0  0  0  0
  8 22  1  0  0  0  0
  1 23  1  0  0  0  0
  9 11  1  0  0  0  0
 23 24  1  0  0  0  0
  2  3  1  0  0  0  0
 24 25  2  0  0  0  0
 11 12  1  0  0  0  0
 25 26  1  0  0  0  0
  5  6  1  0  0  0  0
 26 27  2  0  0  0  0
 12 13  1  0  0  0  0
 27 28  1  0  0  0  0
  3  6  2  0  0  0  0
 28 29  2  0  0  0  0
 24 29  1  0  0  0  0
 13 14  1  0  0  0  0
 11 30  1  0  0  0  0
 30 31  1  0  0  0  0
  6  7  1  0  0  0  0
 14 15  1  0  0  0  0
 15 16  1  0  0  0  0
  1  2  2  0  0  0  0
  7  8  2  0  0  0  0
 30 35  1  0  0  0  0
 31 32  1  0  0  0  0
 32 33  1  0  0  0  0
 33 34  1  0  0  0  0
 34 35  1  0  0  0  0
M  END
> <MoleculeName>
CHEMBL397924

> <pCHEMBL>
7.52

> <AssayDescription>
Inhibition of BACE1

> <PubmedId>
17685503

> <DocumentType>
PUBLICATION

> <TargetName>
Beta-secretase 1

> <TargetChemblId>
CHEMBL4822

> <TargetOrganism>
Homo sapiens

> <TargetComponentGenes>
BACE1

> <PDB>
2q15

> <Order>
13

> <spe_1>
-1.36221

> <spe_2>
1.048861

> <Scaffold>
1

$$$$
