
  -OEChem-06092216122D

 35 39  0     1  0  0  0  0  0999 V2000
   16.3573   -9.7969    0.0000 C   0  0  0  0  0  0  0  0  0  0  0  0
   16.3562  -10.6240    0.0000 C   0  0  0  0  0  0  0  0  0  0  0  0
   17.0707  -11.0366    0.0000 N   0  0  0  0  0  0  0  0  0  0  0  0
   17.7868  -10.6235    0.0000 C   0  0  0  0  0  0  0  0  0  0  0  0
   17.7840   -9.7933    0.0000 N   0  0  0  0  0  0  0  0  0  0  0  0
   17.0689   -9.3842    0.0000 C   0  0  0  0  0  0  0  0  0  0  0  0
   14.9306   -9.8005    0.0000 C   0  0  0  0  0  0  0  0  0  0  0  0
   14.9294  -10.6276    0.0000 C   0  0  0  0  0  0  0  0  0  0  0  0
   15.6439  -11.0403    0.0000 C   0  0  0  0  0  0  0  0  0  0  0  0
   15.6421   -9.3879    0.0000 C   0  0  0  0  0  0  0  0  0  0  0  0
   13.5087   -7.3540    0.0000 C   0  0  0  0  0  0  0  0  0  0  0  0
   13.5076   -8.1811    0.0000 C   0  0  0  0  0  0  0  0  0  0  0  0
   14.2221   -8.5937    0.0000 C   0  0  0  0  0  0  0  0  0  0  0  0
   14.9383   -8.1806    0.0000 C   0  0  0  0  0  0  0  0  0  0  0  0
   14.9355   -7.3504    0.0000 C   0  0  0  0  0  0  0  0  0  0  0  0
   14.2203   -6.9413    0.0000 C   0  0  0  0  0  0  0  0  0  0  0  0
   17.8566   -8.2535    0.0000 C   0  0  0  0  0  0  0  0  0  0  0  0
   17.8740   -7.4126    0.0000 C   0  0  0  0  0  0  0  0  0  0  0  0
   17.1594   -6.9793    0.0000 N   0  0  0  0  0  0  0  0  0  0  0  0
   16.4190   -7.3825    0.0000 C   0  0  0  0  0  0  0  0  0  0  0  0
   15.7002   -6.9492    0.0000 C   0  0  0  0  0  0  0  0  0  0  0  0
   18.5351   -9.4600    0.0000 C   0  0  3  0  0  0  0  0  0  0  0  0
   18.5599   -8.6836    0.0000 C   0  0  0  0  0  0  0  0  0  0  0  0
   14.2160   -9.3773    0.0000 O   0  0  0  0  0  0  0  0  0  0  0  0
   18.5967   -7.0153    0.0000 O   0  0  0  0  0  0  0  0  0  0  0  0
   18.5017  -11.0347    0.0000 N   0  0  0  0  0  0  0  0  0  0  0  0
   19.2184   -9.9167    0.0000 C   0  0  0  0  0  0  0  0  0  0  0  0
   19.2462  -10.7419    0.0000 C   0  0  0  0  0  0  0  0  0  0  0  0
   19.9151   -9.4780    0.0000 C   0  0  0  0  0  0  0  0  0  0  0  0
   17.1784   -6.1549    0.0000 C   0  0  0  0  0  0  0  0  0  0  0  0
   17.9018   -5.7635    0.0000 C   0  0  0  0  0  0  0  0  0  0  0  0
   17.9228   -4.9427    0.0000 C   0  0  0  0  0  0  0  0  0  0  0  0
   17.2202   -4.5100    0.0000 O   0  0  0  0  0  0  0  0  0  0  0  0
   16.4949   -4.9045    0.0000 C   0  0  0  0  0  0  0  0  0  0  0  0
   16.4720   -5.7315    0.0000 C   0  0  0  0  0  0  0  0  0  0  0  0
  8  9  2  0  0  0  0
  2  9  1  0  0  0  0
  4  5  1  0  0  0  0
  1 10  1  0  0  0  0
  7 10  2  0  0  0  0
  2  3  1  0  0  0  0
  5  6  1  0  0  0  0
 17 18  1  0  0  0  0
 18 19  1  0  0  0  0
 19 20  1  0  0  0  0
 15 21  1  0  0  0  0
 20 21  1  0  0  0  0
  5 22  1  0  0  0  0
 17 23  1  0  0  0  0
 22 23  1  0  0  0  0
  7 24  1  0  0  0  0
 13 24  1  0  0  0  0
 11 12  2  0  0  0  0
 18 25  2  0  0  0  0
  1  6  1  0  0  0  0
  4 26  1  0  0  0  0
 27 28  1  0  0  0  0
 12 13  1  0  0  0  0
  1  2  2  0  0  0  0
 13 14  2  0  0  0  0
 27 29  1  0  0  0  0
 22 27  1  1  0  0  0
  3  4  2  0  0  0  0
 19 30  1  0  0  0  0
 30 31  1  0  0  0  0
 14 15  1  0  0  0  0
  7  8  1  0  0  0  0
 15 16  2  0  0  0  0
 11 16  1  0  0  0  0
 30 35  1  0  0  0  0
 31 32  1  0  0  0  0
 32 33  1  0  0  0  0
 33 34  1  0  0  0  0
 34 35  1  0  0  0  0
M  END
> <MoleculeName>
CHEMBL1097058

> <pCHEMBL>
7.66

> <AssayDescription>
Inhibition of BACE1

> <PubmedId>
20399652

> <DocumentType>
PUBLICATION

> <TargetName>
Beta-secretase 1

> <TargetChemblId>
CHEMBL4822

> <TargetOrganism>
Homo sapiens

> <TargetComponentGenes>
BACE1

> <PDB>
2q15

> <Order>
2001

> <spe_1>
-1.482862

> <spe_2>
-0.2082575

> <Scaffold>
2

$$$$
