
  -OEChem-06092216122D

 26 28  0     0  0  0  0  0  0999 V2000
   -4.2208    0.8458    0.0000 C   0  0  0  0  0  0  0  0  0  0  0  0
   -4.2208    0.0208    0.0000 C   0  0  0  0  0  0  0  0  0  0  0  0
   -2.7968    0.8458    0.0000 C   0  0  0  0  0  0  0  0  0  0  0  0
   -3.5088    1.2625    0.0000 N   0  0  0  0  0  0  0  0  0  0  0  0
   -2.7968    0.0208    0.0000 C   0  0  0  0  0  0  0  0  0  0  0  0
   -3.5086   -0.3880    0.0000 N   0  0  0  0  0  0  0  0  0  0  0  0
   -2.0788   -0.3962    0.0000 C   0  0  0  0  0  0  0  0  0  0  0  0
   -2.0818   -1.2221    0.0000 C   0  0  0  0  0  0  0  0  0  0  0  0
   -1.3719   -1.6353    0.0000 C   0  0  0  0  0  0  0  0  0  0  0  0
   -0.6545   -1.2272    0.0000 C   0  0  0  0  0  0  0  0  0  0  0  0
   -0.6516   -0.4012    0.0000 C   0  0  0  0  0  0  0  0  0  0  0  0
   -1.3660    0.0166    0.0000 C   0  0  0  0  0  0  0  0  0  0  0  0
   -3.5088    2.0875    0.0000 C   0  0  0  0  0  0  0  0  0  0  0  0
   -2.0811    1.2562    0.0000 O   0  0  0  0  0  0  0  0  0  0  0  0
   -4.9348   -0.3926    0.0000 N   0  0  0  0  0  0  0  0  0  0  0  0
    0.0648    0.0080    0.0000 N   0  0  0  0  0  0  0  0  0  0  0  0
    0.7774   -0.4077    0.0000 C   0  0  0  0  0  0  0  0  0  0  0  0
    1.4937    0.0016    0.0000 C   0  0  0  0  0  0  0  0  0  0  0  0
    0.7736   -1.2327    0.0000 O   0  0  0  0  0  0  0  0  0  0  0  0
    2.2065   -0.4191    0.0000 C   0  0  0  0  0  0  0  0  0  0  0  0
    2.9206   -0.0134    0.0000 C   0  0  0  0  0  0  0  0  0  0  0  0
    2.9287    0.8119    0.0000 C   0  0  0  0  0  0  0  0  0  0  0  0
    2.2162    1.2299    0.0000 C   0  0  0  0  0  0  0  0  0  0  0  0
    1.4958    0.8225    0.0000 N   0  0  0  0  0  0  0  0  0  0  0  0
   -2.0875    0.4375    0.0000 C   0  0  0  0  0  0  0  0  0  0  0  0
    3.6465    1.2185    0.0000 Cl  0  0  0  0  0  0  0  0  0  0  0  0
  1  2  1  0  0  0  0
  4 13  1  0  0  0  0
  7  8  2  0  0  0  0
  3 14  2  0  0  0  0
  1  4  1  0  0  0  0
  2 15  1  0  0  0  0
  2  6  2  0  0  0  0
 11 16  1  0  0  0  0
  3  5  1  0  0  0  0
 16 17  1  0  0  0  0
  3  4  1  0  0  0  0
 17 18  1  0  0  0  0
  5  6  1  0  0  0  0
 17 19  2  0  0  0  0
 18 20  2  0  0  0  0
  7 12  1  0  0  0  0
  8  9  1  0  0  0  0
  9 10  2  0  0  0  0
 10 11  1  0  0  0  0
 18 24  1  0  0  0  0
 20 21  1  0  0  0  0
 21 22  2  0  0  0  0
 22 23  1  0  0  0  0
 23 24  2  0  0  0  0
 11 12  2  0  0  0  0
  5 25  1  0  0  0  0
  5  7  1  0  0  0  0
 22 26  1  0  0  0  0
M  END
> <MoleculeName>
CHEMBL1923158

> <pCHEMBL>
6.35

> <AssayDescription>
Inhibition of human recombinant BACE1 using fluorescent Mca-Ser-Glu-Val-Asn-Leu-Asp-Ala-Glu-Phe-Lys(Dnp)-OH peptide as substrate after 1 hr by spectroflurorimeter analysis

> <PubmedId>
22071305

> <DocumentType>
PUBLICATION

> <TargetName>
Beta-secretase 1

> <TargetChemblId>
CHEMBL4822

> <TargetOrganism>
Homo sapiens

> <TargetComponentGenes>
BACE1

> <PDB>
3u6a

> <Order>
473

> <spe_1>
-0.3293164

> <spe_2>
0.9352327

> <Scaffold>
3

$$$$
