
  -OEChem-06092216122D

 26 28  0     1  0  0  0  0  0999 V2000
    2.3238   -0.1256    0.0000 C   0  0  0  0  0  0  0  0  0  0  0  0
    1.2990   -0.7500    0.0000 C   0  0  3  0  0  0  0  0  0  0  0  0
    1.2990    0.7500    0.0000 C   0  0  0  0  0  0  0  0  0  0  0  0
    0.0000    1.5000    0.0000 C   0  0  0  0  0  0  0  0  0  0  0  0
   -1.2990    0.7500    0.0000 O   0  0  0  0  0  0  0  0  0  0  0  0
   -1.2990   -0.7500    0.0000 C   0  0  0  0  0  0  0  0  0  0  0  0
    0.0000   -1.5000    0.0000 N   0  0  0  0  0  0  0  0  0  0  0  0
   -2.3383   -1.3500    0.0000 N   0  0  0  0  0  0  0  0  0  0  0  0
    1.2643   -2.2302    0.0000 C   0  0  0  0  0  0  0  0  0  0  0  0
    2.5453   -3.0105    0.0000 C   0  0  0  0  0  0  0  0  0  0  0  0
    2.5101   -4.5101    0.0000 C   0  0  0  0  0  0  0  0  0  0  0  0
    3.7903   -5.2935    0.0000 N   0  0  0  0  0  0  0  0  0  0  0  0
    3.7529   -6.7938    0.0000 C   0  0  0  0  0  0  0  0  0  0  0  0
    2.6989   -7.3674    0.0000 O   0  0  0  0  0  0  0  0  0  0  0  0
    5.0331   -7.5772    0.0000 C   0  0  0  0  0  0  0  0  0  0  0  0
    4.9979   -9.0768    0.0000 C   0  0  0  0  0  0  0  0  0  0  0  0
    6.2789   -9.8572    0.0000 C   0  0  0  0  0  0  0  0  0  0  0  0
    7.5952   -9.1379    0.0000 C   0  0  0  0  0  0  0  0  0  0  0  0
    7.6305   -7.6383    0.0000 C   0  0  0  0  0  0  0  0  0  0  0  0
    6.3495   -6.8580    0.0000 N   0  0  0  0  0  0  0  0  0  0  0  0
    8.8770   -9.9187    0.0000 C   0  0  0  0  0  0  0  0  0  0  0  0
    9.9018  -10.5429    0.0000 N   0  0  0  0  0  0  0  0  0  0  0  0
    1.1938   -5.2294    0.0000 C   0  0  0  0  0  0  0  0  0  0  0  0
   -0.0872   -4.4491    0.0000 C   0  0  0  0  0  0  0  0  0  0  0  0
   -0.0520   -2.9495    0.0000 C   0  0  0  0  0  0  0  0  0  0  0  0
   -1.0769   -2.3253    0.0000 F   0  0  0  0  0  0  0  0  0  0  0  0
  2  1  1  6  0  0  0
  2  3  1  0  0  0  0
  3  4  1  0  0  0  0
  4  5  1  0  0  0  0
  5  6  1  0  0  0  0
  6  7  2  0  0  0  0
  2  7  1  0  0  0  0
  6  8  1  0  0  0  0
  2  9  1  0  0  0  0
  9 10  2  0  0  0  0
 10 11  1  0  0  0  0
 11 12  1  0  0  0  0
 12 13  1  0  0  0  0
 13 14  2  0  0  0  0
 13 15  1  0  0  0  0
 15 16  2  0  0  0  0
 16 17  1  0  0  0  0
 17 18  2  0  0  0  0
 18 19  1  0  0  0  0
 19 20  2  0  0  0  0
 15 20  1  0  0  0  0
 18 21  1  0  0  0  0
 21 22  3  0  0  0  0
 11 23  2  0  0  0  0
 23 24  1  0  0  0  0
 24 25  2  0  0  0  0
  9 25  1  0  0  0  0
 25 26  1  0  0  0  0
M  END
> <MoleculeName>
CHEMBL2347203

> <pCHEMBL>
6.93

> <AssayDescription>
Inhibition of human recombinant BACE1 (43 to 545 residues) expressed in Escherichia coli BL21(DE3) using APP Swedish Lys-Met/Asn-Leu mutant as substrate incubated for 3 hrs by HTRF assay

> <PubmedId>
29733614

> <DocumentType>
PUBLICATION

> <TargetName>
Beta-secretase 1

> <TargetChemblId>
CHEMBL4822

> <TargetOrganism>
Homo sapiens

> <TargetComponentGenes>
BACE1

> <PDB>
7d2x

> <Order>
760

> <spe_1>
0.3889917

> <spe_2>
0.1886335

> <Scaffold>
4

$$$$
