
  -OEChem-06092216122D

 26 28  0     0  0  0  0  0  0999 V2000
   -4.2288  -13.7029    0.0000 C   0  0  0  0  0  0  0  0  0  0  0  0
   -4.2288  -14.5278    0.0000 C   0  0  0  0  0  0  0  0  0  0  0  0
   -2.8048  -13.7029    0.0000 C   0  0  0  0  0  0  0  0  0  0  0  0
   -3.5168  -13.2862    0.0000 N   0  0  0  0  0  0  0  0  0  0  0  0
   -2.8048  -14.5278    0.0000 C   0  0  0  0  0  0  0  0  0  0  0  0
   -3.5166  -14.9366    0.0000 N   0  0  0  0  0  0  0  0  0  0  0  0
   -2.0870  -14.9448    0.0000 C   0  0  0  0  0  0  0  0  0  0  0  0
   -2.0899  -15.7706    0.0000 C   0  0  0  0  0  0  0  0  0  0  0  0
   -1.3801  -16.1837    0.0000 C   0  0  0  0  0  0  0  0  0  0  0  0
   -0.6627  -15.7757    0.0000 C   0  0  0  0  0  0  0  0  0  0  0  0
   -0.6598  -14.9498    0.0000 C   0  0  0  0  0  0  0  0  0  0  0  0
   -1.3743  -14.5320    0.0000 C   0  0  0  0  0  0  0  0  0  0  0  0
   -3.5168  -12.4613    0.0000 C   0  0  0  0  0  0  0  0  0  0  0  0
   -4.9426  -14.9412    0.0000 N   0  0  0  0  0  0  0  0  0  0  0  0
    0.0564  -14.5406    0.0000 N   0  0  0  0  0  0  0  0  0  0  0  0
    0.7689  -14.9563    0.0000 C   0  0  0  0  0  0  0  0  0  0  0  0
    1.4853  -14.5470    0.0000 C   0  0  0  0  0  0  0  0  0  0  0  0
    0.7652  -15.7812    0.0000 O   0  0  0  0  0  0  0  0  0  0  0  0
    2.1979  -14.9677    0.0000 C   0  0  0  0  0  0  0  0  0  0  0  0
    2.9120  -14.5620    0.0000 C   0  0  0  0  0  0  0  0  0  0  0  0
    2.9200  -13.7368    0.0000 C   0  0  0  0  0  0  0  0  0  0  0  0
    2.2077  -13.3188    0.0000 C   0  0  0  0  0  0  0  0  0  0  0  0
    1.4874  -13.6949    0.0000 N   0  0  0  0  0  0  0  0  0  0  0  0
   -2.0956  -14.1111    0.0000 C   0  0  0  0  0  0  0  0  0  0  0  0
    3.6379  -13.3302    0.0000 Cl  0  0  0  0  0  0  0  0  0  0  0  0
   -4.9443  -13.2925    0.0000 O   0  0  0  0  0  0  0  0  0  0  0  0
  1  2  1  0  0  0  0
  4 13  1  0  0  0  0
  7  8  2  0  0  0  0
  2 14  1  0  0  0  0
  1  4  1  0  0  0  0
 11 15  1  0  0  0  0
  2  6  2  0  0  0  0
 15 16  1  0  0  0  0
  3  5  1  0  0  0  0
 16 17  1  0  0  0  0
  3  4  1  0  0  0  0
 16 18  2  0  0  0  0
 17 19  2  0  0  0  0
  5  6  1  0  0  0  0
  7 12  1  0  0  0  0
  8  9  1  0  0  0  0
  9 10  2  0  0  0  0
 17 23  1  0  0  0  0
 19 20  1  0  0  0  0
 20 21  2  0  0  0  0
 21 22  1  0  0  0  0
 22 23  2  0  0  0  0
 10 11  1  0  0  0  0
  5 24  1  0  0  0  0
 11 12  2  0  0  0  0
 21 25  1  0  0  0  0
  5  7  1  0  0  0  0
  1 26  2  0  0  0  0
M  END
> <MoleculeName>
CHEMBL1921816

> <pCHEMBL>
6.53

> <AssayDescription>
Inhibition of human recombinant BACE1 using fluorescent Mca-Ser-Glu-Val-Asn-Leu-Asp-Ala-Glu-Phe-Lys(Dnp)-OH peptide as substrate after 1 hr by spectroflurorimeter analysis

> <PubmedId>
22071305

> <DocumentType>
PUBLICATION

> <TargetName>
Beta-secretase 1

> <TargetChemblId>
CHEMBL4822

> <TargetOrganism>
Homo sapiens

> <TargetComponentGenes>
BACE1

> <PDB>
3u6a

> <Order>
493

> <spe_1>
-0.1129987

> <spe_2>
0.8097367

> <Scaffold>
3

$$$$
