
  -OEChem-06092216122D

 29 32  0     1  0  0  0  0  0999 V2000
    1.2990   -0.7500    0.0000 C   0  0  0  0  0  0  0  0  0  0  0  0
    1.2990    0.7500    0.0000 C   0  0  0  0  0  0  0  0  0  0  0  0
    0.0000    1.5000    0.0000 N   0  0  0  0  0  0  0  0  0  0  0  0
   -1.2990    0.7500    0.0000 C   0  0  3  0  0  0  0  0  0  0  0  0
   -1.2990   -0.7500    0.0000 C   0  0  3  0  0  0  0  0  0  0  0  0
    0.0000   -1.5000    0.0000 O   0  0  0  0  0  0  0  0  0  0  0  0
    2.3383    1.3500    0.0000 N   0  0  0  0  0  0  0  0  0  0  0  0
   -1.2641    2.2299    0.0000 C   0  0  0  0  0  0  0  0  0  0  0  0
   -2.7507    0.4587    0.0000 C   0  0  0  0  0  0  0  0  0  0  0  0
   -3.2305   -0.9625    0.0000 C   0  0  0  0  0  0  0  0  0  0  0  0
   -4.7012   -1.2576    0.0000 C   0  0  0  0  0  0  0  0  0  0  0  0
   -5.6921   -0.1315    0.0000 C   0  0  0  0  0  0  0  0  0  0  0  0
   -5.2123    1.2897    0.0000 C   0  0  0  0  0  0  0  0  0  0  0  0
   -3.7416    1.5848    0.0000 C   0  0  0  0  0  0  0  0  0  0  0  0
   -5.1842   -2.6786    0.0000 N   0  0  0  0  0  0  0  0  0  0  0  0
   -6.6561   -2.9718    0.0000 C   0  0  0  0  0  0  0  0  0  0  0  0
   -7.1391   -4.3927    0.0000 C   0  0  0  0  0  0  0  0  0  0  0  0
   -7.4472   -2.0695    0.0000 O   0  0  0  0  0  0  0  0  0  0  0  0
   -8.6098   -4.6879    0.0000 N   0  0  0  0  0  0  0  0  0  0  0  0
   -9.0896   -6.1091    0.0000 C   0  0  0  0  0  0  0  0  0  0  0  0
   -8.0987   -7.2352    0.0000 C   0  0  0  0  0  0  0  0  0  0  0  0
   -6.6280   -6.9402    0.0000 N   0  0  0  0  0  0  0  0  0  0  0  0
   -6.1482   -5.5190    0.0000 C   0  0  0  0  0  0  0  0  0  0  0  0
   -3.3578    2.7218    0.0000 F   0  0  0  0  0  0  0  0  0  0  0  0
   -8.5759   -8.6582    0.0000 O   0  0  0  0  0  0  0  0  0  0  0  0
   -7.7819   -9.5580    0.0000 C   0  0  0  0  0  0  0  0  0  0  0  0
   -2.3383   -1.3500    0.0000 F   0  0  0  0  0  0  0  0  0  0  0  0
   -0.4858    3.4194    0.0000 C   0  0  0  0  0  0  0  0  0  0  0  0
   -1.9854    3.4548    0.0000 C   0  0  0  0  0  0  0  0  0  0  0  0
  1  2  1  0  0  0  0
  1  6  1  0  0  0  0
  2  3  2  0  0  0  0
  3  4  1  0  0  0  0
  4  5  1  0  0  0  0
  5  6  1  0  0  0  0
  2  7  1  0  0  0  0
  4  8  1  0  0  0  0
  4  9  1  1  0  0  0
  9 10  2  0  0  0  0
 10 11  1  0  0  0  0
 11 12  2  0  0  0  0
 12 13  1  0  0  0  0
 13 14  2  0  0  0  0
  9 14  1  0  0  0  0
 11 15  1  0  0  0  0
 15 16  1  0  0  0  0
 16 17  1  0  0  0  0
 16 18  2  0  0  0  0
 17 19  2  0  0  0  0
 19 20  1  0  0  0  0
 20 21  2  0  0  0  0
 21 22  1  0  0  0  0
 22 23  2  0  0  0  0
 17 23  1  0  0  0  0
 14 24  1  0  0  0  0
 21 25  1  0  0  0  0
 25 26  1  0  0  0  0
  5 27  1  6  0  0  0
  8 28  1  0  0  0  0
 28 29  1  0  0  0  0
  8 29  1  0  0  0  0
M  END
> <MoleculeName>
CHEMBL3634130

> <pCHEMBL>
7.18

> <AssayDescription>
Inhibition of BACE1 (unknown origin) using APP Swedish mutant harboring Lys-Met/Asn-Leu mutation in beta-secretase cleavage site as substrate by FRET assay

> <PubmedId>
26378740

> <DocumentType>
PUBLICATION

> <TargetName>
Beta-secretase 1

> <TargetChemblId>
CHEMBL4822

> <TargetOrganism>
Homo sapiens

> <TargetComponentGenes>
BACE1

> <PDB>
5clm

> <Order>
2012

> <spe_1>
-0.2356899

> <spe_2>
-0.2627773

> <Scaffold>
4

$$$$
