
  -OEChem-06092216122D

 26 28  0     1  0  0  0  0  0999 V2000
    8.9148   -9.9961    0.0000 C   0  0  3  0  0  0  0  0  0  0  0  0
    9.6206   -9.5834    0.0000 C   0  0  0  0  0  0  0  0  0  0  0  0
    9.6160   -8.7704    0.0000 C   0  0  0  0  0  0  0  0  0  0  0  0
    8.9074   -8.3639    0.0000 O   0  0  0  0  0  0  0  0  0  0  0  0
    8.2016   -8.7766    0.0000 C   0  0  0  0  0  0  0  0  0  0  0  0
    8.2045   -9.5958    0.0000 N   0  0  0  0  0  0  0  0  0  0  0  0
    3.2632   -9.1954    0.0000 C   0  0  0  0  0  0  0  0  0  0  0  0
    3.2621  -10.0150    0.0000 C   0  0  0  0  0  0  0  0  0  0  0  0
    3.9701  -10.4239    0.0000 C   0  0  0  0  0  0  0  0  0  0  0  0
    4.6798  -10.0145    0.0000 C   0  0  0  0  0  0  0  0  0  0  0  0
    4.6770   -9.1918    0.0000 N   0  0  0  0  0  0  0  0  0  0  0  0
    3.9683   -8.7866    0.0000 C   0  0  0  0  0  0  0  0  0  0  0  0
    2.5520   -8.7852    0.0000 C   0  0  0  0  0  0  0  0  0  0  0  0
    1.8442   -8.3768    0.0000 N   0  0  0  0  0  0  0  0  0  0  0  0
    5.3881  -10.4220    0.0000 C   0  0  0  0  0  0  0  0  0  0  0  0
    5.3894  -11.2392    0.0000 O   0  0  0  0  0  0  0  0  0  0  0  0
    6.0952  -10.0123    0.0000 N   0  0  0  0  0  0  0  0  0  0  0  0
    6.8035  -10.4198    0.0000 C   0  0  0  0  0  0  0  0  0  0  0  0
    6.8002  -11.2354    0.0000 C   0  0  0  0  0  0  0  0  0  0  0  0
    7.5077  -11.6428    0.0000 C   0  0  0  0  0  0  0  0  0  0  0  0
    8.2158  -11.2330    0.0000 C   0  0  0  0  0  0  0  0  0  0  0  0
    8.2118  -10.4116    0.0000 C   0  0  0  0  0  0  0  0  0  0  0  0
    7.5038  -10.0079    0.0000 C   0  0  0  0  0  0  0  0  0  0  0  0
    8.9247  -11.6396    0.0000 F   0  0  0  0  0  0  0  0  0  0  0  0
    7.4921   -8.3712    0.0000 N   0  0  0  0  0  0  0  0  0  0  0  0
    9.6206  -10.4047    0.0000 C   0  0  0  0  0  0  0  0  0  0  0  0
  1  2  1  0  0  0  0
  1  6  1  0  0  0  0
  2  3  2  0  0  0  0
  3  4  1  0  0  0  0
  4  5  1  0  0  0  0
  5  6  2  0  0  0  0
  7  8  2  0  0  0  0
  8  9  1  0  0  0  0
  9 10  2  0  0  0  0
 10 11  1  0  0  0  0
 11 12  2  0  0  0  0
  7 12  1  0  0  0  0
 13 14  3  0  0  0  0
  7 13  1  0  0  0  0
 10 15  1  0  0  0  0
 15 16  2  0  0  0  0
 15 17  1  0  0  0  0
 17 18  1  0  0  0  0
 18 19  2  0  0  0  0
 19 20  1  0  0  0  0
 20 21  2  0  0  0  0
 21 22  1  0  0  0  0
 22 23  2  0  0  0  0
 18 23  1  0  0  0  0
 21 24  1  0  0  0  0
  1 22  1  0  0  0  0
  5 25  1  0  0  0  0
  1 26  1  6  0  0  0
M  END
> <MoleculeName>
CHEMBL4205656

> <pCHEMBL>
6.66

> <AssayDescription>
Inhibition of human recombinant BACE1 (43 to 545 residues) expressed in Escherichia coli BL21(DE3) using APP Swedish Lys-Met/Asn-Leu mutant as substrate incubated for 3 hrs by HTRF assay

> <PubmedId>
29733614

> <DocumentType>
PUBLICATION

> <TargetName>
Beta-secretase 1

> <TargetChemblId>
CHEMBL4822

> <TargetOrganism>
Homo sapiens

> <TargetComponentGenes>
BACE1

> <PDB>
7d2x

> <Order>
2023

> <spe_1>
0.5312554

> <spe_2>
0.02280473

> <Scaffold>
5

$$$$
