
  -OEChem-06092216122D

 29 32  0     1  0  0  0  0  0999 V2000
   15.2671  -14.5462    0.0000 C   0  0  3  0  0  0  0  0  0  0  0  0
   13.8462  -14.5462    0.0000 C   0  0  0  0  0  0  0  0  0  0  0  0
   14.5582  -14.9545    0.0000 N   0  0  0  0  0  0  0  0  0  0  0  0
   15.2702  -13.7212    0.0000 C   0  0  0  0  0  0  0  0  0  0  0  0
   13.1323  -14.9597    0.0000 N   0  0  0  0  0  0  0  0  0  0  0  0
   15.9805  -14.9604    0.0000 C   0  0  0  0  0  0  0  0  0  0  0  0
   15.9748  -15.7848    0.0000 C   0  0  0  0  0  0  0  0  0  0  0  0
   16.6874  -16.1989    0.0000 C   0  0  0  0  0  0  0  0  0  0  0  0
   17.4039  -15.7881    0.0000 C   0  0  0  0  0  0  0  0  0  0  0  0
   17.4032  -14.9588    0.0000 C   0  0  0  0  0  0  0  0  0  0  0  0
   16.6900  -14.5483    0.0000 C   0  0  0  0  0  0  0  0  0  0  0  0
   15.9795  -14.1295    0.0000 C   0  0  0  0  0  0  0  0  0  0  0  0
   16.6883  -13.7233    0.0000 F   0  0  0  0  0  0  0  0  0  0  0  0
   16.6850  -17.0239    0.0000 N   0  0  0  0  0  0  0  0  0  0  0  0
   17.3983  -17.4386    0.0000 C   0  0  0  0  0  0  0  0  0  0  0  0
   17.3959  -18.2635    0.0000 C   0  0  0  0  0  0  0  0  0  0  0  0
   18.1140  -17.0281    0.0000 O   0  0  0  0  0  0  0  0  0  0  0  0
   16.6786  -18.6721    0.0000 N   0  0  0  0  0  0  0  0  0  0  0  0
   16.6758  -19.4963    0.0000 C   0  0  0  0  0  0  0  0  0  0  0  0
   17.3897  -19.9117    0.0000 C   0  0  0  0  0  0  0  0  0  0  0  0
   18.1077  -19.4969    0.0000 C   0  0  0  0  0  0  0  0  0  0  0  0
   18.1070  -18.6740    0.0000 C   0  0  0  0  0  0  0  0  0  0  0  0
   13.8462  -13.7212    0.0000 C   0  0  0  0  0  0  0  0  0  0  0  0
   14.5582  -13.3044    0.0000 N   0  0  0  0  0  0  0  0  0  0  0  0
   14.3820  -12.4985    0.0000 N   0  0  0  0  0  0  0  0  0  0  0  0
   13.5609  -12.4170    0.0000 C   0  0  0  0  0  0  0  0  0  0  0  0
   13.2298  -13.1728    0.0000 N   0  0  0  0  0  0  0  0  0  0  0  0
   17.3916  -20.7362    0.0000 C   0  0  0  0  0  0  0  0  0  0  0  0
   17.3903  -21.5613    0.0000 N   0  0  0  0  0  0  0  0  0  0  0  0
  2 23  1  0  0  0  0
  2  3  2  0  0  0  0
  1  3  1  0  0  0  0
  1  4  1  0  0  0  0
  4 24  1  0  0  0  0
  2  5  1  0  0  0  0
  1  6  1  1  0  0  0
  6  7  2  0  0  0  0
  7  8  1  0  0  0  0
  8  9  2  0  0  0  0
  9 10  1  0  0  0  0
 10 11  2  0  0  0  0
  6 11  1  0  0  0  0
  1 12  1  0  0  0  0
 11 13  1  0  0  0  0
  8 14  1  0  0  0  0
 14 15  1  0  0  0  0
 15 16  1  0  0  0  0
 15 17  2  0  0  0  0
 16 18  2  0  0  0  0
 18 19  1  0  0  0  0
 19 20  2  0  0  0  0
 20 21  1  0  0  0  0
 21 22  2  0  0  0  0
 16 22  1  0  0  0  0
 23 24  1  0  0  0  0
 24 25  1  0  0  0  0
 25 26  2  0  0  0  0
 26 27  1  0  0  0  0
 23 27  2  0  0  0  0
 28 29  3  0  0  0  0
 20 28  1  0  0  0  0
M  END
> <MoleculeName>
CHEMBL4438397

> <pCHEMBL>
8.22

> <AssayDescription>
Inhibition of BACE1 (unknown origin)

> <PubmedId>
31413800

> <DocumentType>
PUBLICATION

> <TargetName>
Beta-secretase 1

> <TargetChemblId>
CHEMBL4822

> <TargetOrganism>
Homo sapiens

> <TargetComponentGenes>
BACE1

> <PDB>
6od6

> <Order>
2035

> <spe_1>
0.8031416

> <spe_2>
0.7106434

> <Scaffold>
7

$$$$
