
  -OEChem-06092216122D

 29 31  0     1  0  0  0  0  0999 V2000
   40.3932   -4.9774    0.0000 C   0  0  3  0  0  0  0  0  0  0  0  0
   41.0989   -4.5647    0.0000 C   0  0  0  0  0  0  0  0  0  0  0  0
   41.0944   -3.7517    0.0000 C   0  0  0  0  0  0  0  0  0  0  0  0
   40.3858   -3.3452    0.0000 O   0  0  0  0  0  0  0  0  0  0  0  0
   39.6800   -3.7579    0.0000 C   0  0  0  0  0  0  0  0  0  0  0  0
   39.6829   -4.5771    0.0000 N   0  0  0  0  0  0  0  0  0  0  0  0
   34.7416   -4.1767    0.0000 C   0  0  0  0  0  0  0  0  0  0  0  0
   34.7404   -4.9963    0.0000 C   0  0  0  0  0  0  0  0  0  0  0  0
   35.4485   -5.4052    0.0000 C   0  0  0  0  0  0  0  0  0  0  0  0
   36.1582   -4.9958    0.0000 C   0  0  0  0  0  0  0  0  0  0  0  0
   36.1553   -4.1731    0.0000 N   0  0  0  0  0  0  0  0  0  0  0  0
   35.4467   -3.7679    0.0000 C   0  0  0  0  0  0  0  0  0  0  0  0
   34.0304   -3.7665    0.0000 C   0  0  0  0  0  0  0  0  0  0  0  0
   33.3226   -3.3581    0.0000 N   0  0  0  0  0  0  0  0  0  0  0  0
   36.8665   -5.4033    0.0000 C   0  0  0  0  0  0  0  0  0  0  0  0
   36.8678   -6.2205    0.0000 O   0  0  0  0  0  0  0  0  0  0  0  0
   37.5736   -4.9936    0.0000 N   0  0  0  0  0  0  0  0  0  0  0  0
   38.2819   -5.4010    0.0000 C   0  0  0  0  0  0  0  0  0  0  0  0
   38.2786   -6.2167    0.0000 C   0  0  0  0  0  0  0  0  0  0  0  0
   38.9861   -6.6241    0.0000 C   0  0  0  0  0  0  0  0  0  0  0  0
   39.6941   -6.2143    0.0000 C   0  0  0  0  0  0  0  0  0  0  0  0
   39.6902   -5.3929    0.0000 C   0  0  0  0  0  0  0  0  0  0  0  0
   38.9821   -4.9892    0.0000 C   0  0  0  0  0  0  0  0  0  0  0  0
   40.4030   -6.6209    0.0000 F   0  0  0  0  0  0  0  0  0  0  0  0
   38.9704   -3.3525    0.0000 N   0  0  0  0  0  0  0  0  0  0  0  0
   41.0989   -5.3860    0.0000 C   0  0  0  0  0  0  0  0  0  0  0  0
   41.8004   -3.3401    0.0000 C   0  0  0  0  0  0  0  0  0  0  0  0
   42.5098   -3.7457    0.0000 F   0  0  0  0  0  0  0  0  0  0  0  0
   35.4483   -6.2224    0.0000 C   0  0  0  0  0  0  0  0  0  0  0  0
  1  2  1  0  0  0  0
  1  6  1  0  0  0  0
  2  3  2  0  0  0  0
  3  4  1  0  0  0  0
  4  5  1  0  0  0  0
  5  6  2  0  0  0  0
  7  8  2  0  0  0  0
  8  9  1  0  0  0  0
  9 10  2  0  0  0  0
 10 11  1  0  0  0  0
 11 12  2  0  0  0  0
  7 12  1  0  0  0  0
 13 14  3  0  0  0  0
  7 13  1  0  0  0  0
 10 15  1  0  0  0  0
 15 16  2  0  0  0  0
 15 17  1  0  0  0  0
 17 18  1  0  0  0  0
 18 19  2  0  0  0  0
 19 20  1  0  0  0  0
 20 21  2  0  0  0  0
 21 22  1  0  0  0  0
 22 23  2  0  0  0  0
 18 23  1  0  0  0  0
 21 24  1  0  0  0  0
  1 22  1  0  0  0  0
  5 25  1  0  0  0  0
  1 26  1  6  0  0  0
  3 27  1  0  0  0  0
 27 28  1  0  0  0  0
  9 29  1  0  0  0  0
M  END
> <MoleculeName>
CHEMBL4204742

> <pCHEMBL>
7.18

> <AssayDescription>
Inhibition of human recombinant BACE1 (43 to 545 residues) expressed in Escherichia coli BL21(DE3) using APP Swedish Lys-Met/Asn-Leu mutant as substrate incubated for 3 hrs by HTRF assay

> <PubmedId>
29733614

> <DocumentType>
PUBLICATION

> <TargetName>
Beta-secretase 1

> <TargetChemblId>
CHEMBL4822

> <TargetOrganism>
Homo sapiens

> <TargetComponentGenes>
BACE1

> <PDB>
7d2x

> <Order>
2021

> <spe_1>
0.8781712

> <spe_2>
-0.1357675

> <Scaffold>
5

$$$$
