
  -OEChem-06092216122D

 39 44  0     1  0  0  0  0  0999 V2000
   15.9927  -17.7762    0.0000 C   0  0  0  0  0  0  0  0  0  0  0  0
   15.9916  -18.6038    0.0000 C   0  0  0  0  0  0  0  0  0  0  0  0
   16.7066  -19.0168    0.0000 N   0  0  0  0  0  0  0  0  0  0  0  0
   17.4232  -18.6033    0.0000 C   0  0  0  0  0  0  0  0  0  0  0  0
   17.4204  -17.7726    0.0000 N   0  0  0  0  0  0  0  0  0  0  0  0
   16.7048  -17.3634    0.0000 C   0  0  0  0  0  0  0  0  0  0  0  0
   14.5651  -17.7799    0.0000 C   0  0  0  0  0  0  0  0  0  0  0  0
   14.5639  -18.6074    0.0000 C   0  0  0  0  0  0  0  0  0  0  0  0
   15.2789  -19.0204    0.0000 C   0  0  0  0  0  0  0  0  0  0  0  0
   15.2771  -17.3670    0.0000 C   0  0  0  0  0  0  0  0  0  0  0  0
   13.1423  -15.3317    0.0000 C   0  0  0  0  0  0  0  0  0  0  0  0
   13.1412  -16.1594    0.0000 C   0  0  0  0  0  0  0  0  0  0  0  0
   13.8562  -16.5724    0.0000 C   0  0  0  0  0  0  0  0  0  0  0  0
   14.5728  -16.1589    0.0000 C   0  0  0  0  0  0  0  0  0  0  0  0
   14.5700  -15.3281    0.0000 C   0  0  0  0  0  0  0  0  0  0  0  0
   13.8544  -14.9189    0.0000 C   0  0  0  0  0  0  0  0  0  0  0  0
   17.4930  -16.2319    0.0000 C   0  0  0  0  0  0  0  0  0  0  0  0
   17.5104  -15.3904    0.0000 C   0  0  0  0  0  0  0  0  0  0  0  0
   16.7953  -14.9569    0.0000 N   0  0  0  0  0  0  0  0  0  0  0  0
   16.0545  -15.3602    0.0000 C   0  0  0  0  0  0  0  0  0  0  0  0
   15.3352  -14.9267    0.0000 C   0  0  0  0  0  0  0  0  0  0  0  0
   18.1720  -17.4391    0.0000 C   0  0  3  0  0  0  0  0  0  0  0  0
   18.1968  -16.6622    0.0000 C   0  0  0  0  0  0  0  0  0  0  0  0
   13.8501  -17.3564    0.0000 O   0  0  0  0  0  0  0  0  0  0  0  0
   18.2336  -14.9929    0.0000 O   0  0  0  0  0  0  0  0  0  0  0  0
   18.1385  -19.0148    0.0000 N   0  0  0  0  0  0  0  0  0  0  0  0
   18.8557  -17.8961    0.0000 C   0  0  0  0  0  0  0  0  0  0  0  0
   16.8144  -14.1319    0.0000 C   0  0  0  0  0  0  0  0  0  0  0  0
   17.5382  -13.7403    0.0000 C   0  0  0  0  0  0  0  0  0  0  0  0
   17.5592  -12.9189    0.0000 C   0  0  0  0  0  0  0  0  0  0  0  0
   16.8562  -12.4860    0.0000 C   0  0  0  0  0  0  0  0  0  0  0  0
   16.1304  -12.8807    0.0000 C   0  0  0  0  0  0  0  0  0  0  0  0
   16.1075  -13.7082    0.0000 C   0  0  0  0  0  0  0  0  0  0  0  0
   18.8631  -18.7154    0.0000 C   0  0  0  0  0  0  0  0  0  0  0  0
   19.5760  -19.1181    0.0000 C   0  0  0  0  0  0  0  0  0  0  0  0
   20.2858  -18.7021    0.0000 C   0  0  0  0  0  0  0  0  0  0  0  0
   20.2781  -17.8787    0.0000 C   0  0  0  0  0  0  0  0  0  0  0  0
   19.5606  -17.4715    0.0000 C   0  0  0  0  0  0  0  0  0  0  0  0
   13.8489  -19.0195    0.0000 F   0  0  0  0  0  0  0  0  0  0  0  0
  7 10  2  0  0  0  0
  2  3  1  0  0  0  0
  5  6  1  0  0  0  0
 17 18  1  0  0  0  0
 18 19  1  0  0  0  0
 19 20  1  0  0  0  0
 15 21  1  0  0  0  0
 20 21  1  0  0  0  0
  5 22  1  0  0  0  0
 17 23  1  0  0  0  0
 22 23  1  0  0  0  0
  7 24  1  0  0  0  0
 13 24  1  0  0  0  0
 11 12  2  0  0  0  0
 18 25  2  0  0  0  0
  1  6  1  0  0  0  0
  4 26  1  0  0  0  0
 12 13  1  0  0  0  0
 22 27  1  1  0  0  0
  1  2  2  0  0  0  0
 19 28  1  0  0  0  0
 28 29  1  0  0  0  0
 13 14  2  0  0  0  0
  3  4  2  0  0  0  0
 14 15  1  0  0  0  0
  7  8  1  0  0  0  0
 15 16  2  0  0  0  0
 28 33  1  0  0  0  0
 29 30  1  0  0  0  0
 30 31  1  0  0  0  0
 31 32  1  0  0  0  0
 32 33  1  0  0  0  0
 27 34  1  0  0  0  0
 11 16  1  0  0  0  0
  8  9  2  0  0  0  0
  2  9  1  0  0  0  0
  4  5  1  0  0  0  0
 27 38  1  0  0  0  0
 34 35  1  0  0  0  0
 35 36  1  0  0  0  0
 36 37  1  0  0  0  0
 37 38  1  0  0  0  0
  1 10  1  0  0  0  0
  8 39  1  0  0  0  0
M  END
> <MoleculeName>
CHEMBL1095429

> <pCHEMBL>
8.1

> <AssayDescription>
Inhibition of BACE1

> <PubmedId>
20399652

> <DocumentType>
PUBLICATION

> <TargetName>
Beta-secretase 1

> <TargetChemblId>
CHEMBL4822

> <TargetOrganism>
Homo sapiens

> <TargetComponentGenes>
BACE1

> <PDB>
2q15

> <Order>
60

> <spe_1>
-1.321137

> <spe_2>
-0.6758741

> <Scaffold>
2

$$$$
