
  -OEChem-06092216122D

 29 32  0     1  0  0  0  0  0999 V2000
    9.7925  -28.1353    0.0000 C   0  0  0  0  0  0  0  0  0  0  0  0
    9.7914  -28.9548    0.0000 C   0  0  0  0  0  0  0  0  0  0  0  0
   10.4994  -29.3638    0.0000 C   0  0  0  0  0  0  0  0  0  0  0  0
   11.2091  -28.9543    0.0000 C   0  0  0  0  0  0  0  0  0  0  0  0
   11.2062  -28.1317    0.0000 C   0  0  0  0  0  0  0  0  0  0  0  0
   10.4976  -27.7264    0.0000 N   0  0  0  0  0  0  0  0  0  0  0  0
    9.0875  -29.3626    0.0000 C   0  0  0  0  0  0  0  0  0  0  0  0
    8.3795  -29.7707    0.0000 N   0  0  0  0  0  0  0  0  0  0  0  0
   11.9124  -27.7204    0.0000 C   0  0  0  0  0  0  0  0  0  0  0  0
   12.6216  -28.1263    0.0000 O   0  0  0  0  0  0  0  0  0  0  0  0
   11.9093  -26.9032    0.0000 N   0  0  0  0  0  0  0  0  0  0  0  0
   12.6155  -26.4920    0.0000 C   0  0  0  0  0  0  0  0  0  0  0  0
   13.3200  -26.9014    0.0000 C   0  0  0  0  0  0  0  0  0  0  0  0
   14.0257  -26.4909    0.0000 C   0  0  0  0  0  0  0  0  0  0  0  0
   14.0230  -25.6728    0.0000 C   0  0  0  0  0  0  0  0  0  0  0  0
   13.3088  -25.2671    0.0000 C   0  0  0  0  0  0  0  0  0  0  0  0
   12.6061  -25.6800    0.0000 C   0  0  0  0  0  0  0  0  0  0  0  0
   13.3028  -24.4499    0.0000 C   0  0  3  0  0  0  0  0  0  0  0  0
   14.0096  -24.0382    0.0000 C   0  0  0  0  0  0  0  0  0  0  0  0
   12.5926  -24.0497    0.0000 N   0  0  0  0  0  0  0  0  0  0  0  0
   14.0078  -24.8583    0.0000 C   0  0  0  0  0  0  0  0  0  0  0  0
   12.5902  -23.2299    0.0000 C   0  0  0  0  0  0  0  0  0  0  0  0
   13.2928  -22.8171    0.0000 C   0  0  0  0  0  0  0  0  0  0  0  0
   14.0041  -23.2229    0.0000 N   0  0  0  0  0  0  0  0  0  0  0  0
   14.6098  -22.6718    0.0000 N   0  0  0  0  0  0  0  0  0  0  0  0
   14.2729  -21.9254    0.0000 N   0  0  0  0  0  0  0  0  0  0  0  0
   13.4590  -22.0153    0.0000 C   0  0  0  0  0  0  0  0  0  0  0  0
   11.8804  -22.8250    0.0000 N   0  0  0  0  0  0  0  0  0  0  0  0
   14.7286  -25.2606    0.0000 F   0  0  0  0  0  0  0  0  0  0  0  0
  1  2  2  0  0  0  0
  2  3  1  0  0  0  0
  3  4  2  0  0  0  0
  4  5  1  0  0  0  0
  5  6  2  0  0  0  0
  1  6  1  0  0  0  0
  7  8  3  0  0  0  0
  2  7  1  0  0  0  0
  5  9  1  0  0  0  0
  9 10  2  0  0  0  0
  9 11  1  0  0  0  0
 11 12  1  0  0  0  0
 12 13  2  0  0  0  0
 13 14  1  0  0  0  0
 14 15  2  0  0  0  0
 15 16  1  0  0  0  0
 16 17  2  0  0  0  0
 12 17  1  0  0  0  0
 18 16  1  1  0  0  0
 18 19  1  0  0  0  0
 18 20  1  0  0  0  0
 19 24  1  0  0  0  0
 20 22  2  0  0  0  0
 18 21  1  0  0  0  0
 22 23  1  0  0  0  0
 23 24  1  0  0  0  0
 24 25  1  0  0  0  0
 25 26  2  0  0  0  0
 26 27  1  0  0  0  0
 23 27  2  0  0  0  0
 22 28  1  0  0  0  0
 15 29  1  0  0  0  0
M  END
> <MoleculeName>
CHEMBL4441612

> <pCHEMBL>
8.7

> <AssayDescription>
Inhibition of BACE1 (unknown origin)

> <PubmedId>
31413800

> <DocumentType>
PUBLICATION

> <TargetName>
Beta-secretase 1

> <TargetChemblId>
CHEMBL4822

> <TargetOrganism>
Homo sapiens

> <TargetComponentGenes>
BACE1

> <PDB>
6od6

> <Order>
733

> <spe_1>
0.8426689

> <spe_2>
0.672456

> <Scaffold>
7

$$$$
