
  -OEChem-06092216122D

 37 41  0     1  0  0  0  0  0999 V2000
   -3.2335   -1.6438    0.0000 C   0  0  0  0  0  0  0  0  0  0  0  0
   -2.5190   -2.0563    0.0000 N   0  0  0  0  0  0  0  0  0  0  0  0
   -1.8046   -1.6438    0.0000 C   0  0  0  0  0  0  0  0  0  0  0  0
   -1.0901   -2.0563    0.0000 O   0  0  0  0  0  0  0  0  0  0  0  0
   -1.8046   -0.8188    0.0000 C   0  0  0  0  0  0  0  0  0  0  0  0
   -1.0901   -0.4063    0.0000 C   0  0  0  0  0  0  0  0  0  0  0  0
   -1.0901    0.4187    0.0000 C   0  0  3  0  0  0  0  0  0  0  0  0
   -1.8046    0.8312    0.0000 C   0  0  0  0  0  0  0  0  0  0  0  0
   -2.5190    0.4187    0.0000 C   0  0  0  0  0  0  0  0  0  0  0  0
   -3.2335    0.8312    0.0000 C   0  0  0  0  0  0  0  0  0  0  0  0
   -3.2335    1.6562    0.0000 C   0  0  0  0  0  0  0  0  0  0  0  0
   -2.5190    2.0687    0.0000 C   0  0  0  0  0  0  0  0  0  0  0  0
   -1.8046    1.6562    0.0000 C   0  0  0  0  0  0  0  0  0  0  0  0
   -0.3756    0.8312    0.0000 N   0  0  0  0  0  0  0  0  0  0  0  0
    0.3388    0.4187    0.0000 C   0  0  0  0  0  0  0  0  0  0  0  0
    1.0533    0.8312    0.0000 C   0  0  0  0  0  0  0  0  0  0  0  0
    1.7678    0.4187    0.0000 C   0  0  0  0  0  0  0  0  0  0  0  0
    2.4822    0.8312    0.0000 C   0  0  0  0  0  0  0  0  0  0  0  0
    3.1967    0.4187    0.0000 O   0  0  0  0  0  0  0  0  0  0  0  0
    3.9112    0.8312    0.0000 C   0  0  0  0  0  0  0  0  0  0  0  0
    3.9112    1.6562    0.0000 C   0  0  0  0  0  0  0  0  0  0  0  0
    4.6257    2.0687    0.0000 C   0  0  0  0  0  0  0  0  0  0  0  0
    5.3401    1.6562    0.0000 C   0  0  0  0  0  0  0  0  0  0  0  0
    5.3401    0.8312    0.0000 C   0  0  0  0  0  0  0  0  0  0  0  0
    4.6257    0.4187    0.0000 C   0  0  0  0  0  0  0  0  0  0  0  0
    2.4822    1.6562    0.0000 C   0  0  0  0  0  0  0  0  0  0  0  0
    1.7678    2.0687    0.0000 C   0  0  0  0  0  0  0  0  0  0  0  0
    1.0533    1.6562    0.0000 C   0  0  0  0  0  0  0  0  0  0  0  0
    0.3388    2.0687    0.0000 N   0  0  0  0  0  0  0  0  0  0  0  0
   -0.3756    1.6562    0.0000 C   0  0  0  0  0  0  0  0  0  0  0  0
   -1.0901    2.0687    0.0000 N   0  0  0  0  0  0  0  0  0  0  0  0
   -2.5190   -2.8813    0.0000 C   0  0  0  0  0  0  0  0  0  0  0  0
   -3.2335   -3.2938    0.0000 C   0  0  0  0  0  0  0  0  0  0  0  0
   -3.2335   -4.1188    0.0000 C   0  0  0  0  0  0  0  0  0  0  0  0
   -2.5190   -4.5313    0.0000 C   0  0  0  0  0  0  0  0  0  0  0  0
   -1.8046   -4.1188    0.0000 C   0  0  0  0  0  0  0  0  0  0  0  0
   -1.8046   -3.2938    0.0000 C   0  0  0  0  0  0  0  0  0  0  0  0
  1  2  1  0  0  0  0
  2 32  1  0  0  0  0
  2  3  1  0  0  0  0
  3  5  1  0  0  0  0
  3  4  2  0  0  0  0
  5  6  1  0  0  0  0
  6  7  1  0  0  0  0
  7 14  1  1  0  0  0
  7  8  1  0  0  0  0
  8 13  1  0  0  0  0
  8  9  1  0  0  0  0
  9 10  1  0  0  0  0
 10 11  1  0  0  0  0
 11 12  1  0  0  0  0
 12 13  1  0  0  0  0
 14 30  1  0  0  0  0
 14 15  1  0  0  0  0
 15 16  1  0  0  0  0
 16 28  1  0  0  0  0
 16 17  2  0  0  0  0
 17 18  1  0  0  0  0
 18 26  2  0  0  0  0
 18 19  1  0  0  0  0
 19 20  1  0  0  0  0
 20 21  1  0  0  0  0
 20 25  2  0  0  0  0
 21 22  2  0  0  0  0
 22 23  1  0  0  0  0
 23 24  2  0  0  0  0
 24 25  1  0  0  0  0
 26 27  1  0  0  0  0
 27 28  2  0  0  0  0
 28 29  1  0  0  0  0
 29 30  2  0  0  0  0
 30 31  1  0  0  0  0
 32 37  1  0  0  0  0
 32 33  1  0  0  0  0
 33 34  1  0  0  0  0
 34 35  1  0  0  0  0
 35 36  1  0  0  0  0
 36 37  1  0  0  0  0
M  END
> <MoleculeName>
CHEMBL244347

> <pCHEMBL>
7.96

> <AssayDescription>
Inhibition of BACE1

> <PubmedId>
17685503

> <DocumentType>
PUBLICATION

> <TargetName>
Beta-secretase 1

> <TargetChemblId>
CHEMBL4822

> <TargetOrganism>
Homo sapiens

> <TargetComponentGenes>
BACE1

> <PDB>
2q15

> <Order>
1

> <spe_1>
-1.327332

> <spe_2>
0.8357974

> <Scaffold>
1

$$$$
