
  -OEChem-06092216122D

 27 29  0     1  0  0  0  0  0999 V2000
    3.5081   -2.8808    0.0000 C   0  0  3  0  0  0  0  0  0  0  0  0
    2.1008   -2.0636    0.0000 C   0  0  0  0  0  0  0  0  0  0  0  0
    2.1008   -2.8808    0.0000 C   0  0  0  0  0  0  0  0  0  0  0  0
    2.8060   -3.2853    0.0000 N   0  0  0  0  0  0  0  0  0  0  0  0
    3.5113   -2.0636    0.0000 C   0  0  0  0  0  0  0  0  0  0  0  0
    2.8060   -1.6509    0.0000 N   0  0  0  0  0  0  0  0  0  0  0  0
    1.3919   -1.6571    0.0000 O   0  0  0  0  0  0  0  0  0  0  0  0
    2.8060   -0.8337    0.0000 C   0  0  0  0  0  0  0  0  0  0  0  0
    1.3936   -3.2904    0.0000 N   0  0  0  0  0  0  0  0  0  0  0  0
    4.2149   -3.2911    0.0000 C   0  0  0  0  0  0  0  0  0  0  0  0
    4.2092   -4.1077    0.0000 C   0  0  0  0  0  0  0  0  0  0  0  0
    4.9151   -4.5179    0.0000 C   0  0  0  0  0  0  0  0  0  0  0  0
    5.6247   -4.1109    0.0000 C   0  0  0  0  0  0  0  0  0  0  0  0
    5.6241   -3.2895    0.0000 C   0  0  0  0  0  0  0  0  0  0  0  0
    4.9176   -2.8830    0.0000 C   0  0  0  0  0  0  0  0  0  0  0  0
    4.2139   -2.4681    0.0000 C   0  0  0  0  0  0  0  0  0  0  0  0
    4.9160   -2.0658    0.0000 F   0  0  0  0  0  0  0  0  0  0  0  0
    4.9127   -5.3351    0.0000 N   0  0  0  0  0  0  0  0  0  0  0  0
    5.6192   -5.7457    0.0000 C   0  0  0  0  0  0  0  0  0  0  0  0
    5.6168   -6.5629    0.0000 C   0  0  0  0  0  0  0  0  0  0  0  0
    6.3281   -5.3392    0.0000 O   0  0  0  0  0  0  0  0  0  0  0  0
    4.9063   -6.9676    0.0000 N   0  0  0  0  0  0  0  0  0  0  0  0
    4.9036   -7.7840    0.0000 C   0  0  0  0  0  0  0  0  0  0  0  0
    5.6107   -8.1955    0.0000 C   0  0  0  0  0  0  0  0  0  0  0  0
    6.3219   -7.7845    0.0000 C   0  0  0  0  0  0  0  0  0  0  0  0
    6.3211   -6.9694    0.0000 C   0  0  0  0  0  0  0  0  0  0  0  0
    5.6094   -9.0126    0.0000 Cl  0  0  0  0  0  0  0  0  0  0  0  0
  2  3  1  0  0  0  0
  2  6  1  0  0  0  0
  3  4  2  0  0  0  0
  1  4  1  0  0  0  0
  1  5  1  0  0  0  0
  5  6  1  0  0  0  0
  2  7  2  0  0  0  0
  6  8  1  0  0  0  0
  3  9  1  0  0  0  0
  1 10  1  1  0  0  0
 10 11  2  0  0  0  0
 11 12  1  0  0  0  0
 12 13  2  0  0  0  0
 13 14  1  0  0  0  0
 14 15  2  0  0  0  0
 10 15  1  0  0  0  0
  1 16  1  0  0  0  0
 15 17  1  0  0  0  0
 12 18  1  0  0  0  0
 18 19  1  0  0  0  0
 19 20  1  0  0  0  0
 19 21  2  0  0  0  0
 20 22  2  0  0  0  0
 22 23  1  0  0  0  0
 23 24  2  0  0  0  0
 24 25  1  0  0  0  0
 25 26  2  0  0  0  0
 20 26  1  0  0  0  0
 24 27  1  0  0  0  0
M  END
> <MoleculeName>
CHEMBL4550000

> <pCHEMBL>
7.63

> <AssayDescription>
Inhibition of BACE1 (unknown origin)

> <PubmedId>
31413800

> <DocumentType>
PUBLICATION

> <TargetName>
Beta-secretase 1

> <TargetChemblId>
CHEMBL4822

> <TargetOrganism>
Homo sapiens

> <TargetComponentGenes>
BACE1

> <PDB>
3u6a

> <Order>
536

> <spe_1>
0.07193871

> <spe_2>
0.6548041

> <Scaffold>
3

$$$$
