
  -OEChem-06092216122D

 29 32  0     1  0  0  0  0  0999 V2000
   41.6396   -3.3224    0.0000 C   0  0  3  0  0  0  0  0  0  0  0  0
   40.2322   -3.3224    0.0000 C   0  0  0  0  0  0  0  0  0  0  0  0
   40.9375   -3.7269    0.0000 N   0  0  0  0  0  0  0  0  0  0  0  0
   41.6428   -2.5052    0.0000 C   0  0  0  0  0  0  0  0  0  0  0  0
   39.5251   -3.7320    0.0000 N   0  0  0  0  0  0  0  0  0  0  0  0
   42.3463   -3.7327    0.0000 C   0  0  0  0  0  0  0  0  0  0  0  0
   42.3406   -4.5493    0.0000 C   0  0  0  0  0  0  0  0  0  0  0  0
   43.0465   -4.9595    0.0000 C   0  0  0  0  0  0  0  0  0  0  0  0
   43.7562   -4.5526    0.0000 C   0  0  0  0  0  0  0  0  0  0  0  0
   43.7556   -3.7311    0.0000 C   0  0  0  0  0  0  0  0  0  0  0  0
   43.0491   -3.3246    0.0000 C   0  0  0  0  0  0  0  0  0  0  0  0
   42.3454   -2.9097    0.0000 C   0  0  0  0  0  0  0  0  0  0  0  0
   43.0475   -2.5074    0.0000 F   0  0  0  0  0  0  0  0  0  0  0  0
   43.0442   -5.7767    0.0000 N   0  0  0  0  0  0  0  0  0  0  0  0
   43.7507   -6.1873    0.0000 C   0  0  0  0  0  0  0  0  0  0  0  0
   43.7483   -7.0045    0.0000 C   0  0  0  0  0  0  0  0  0  0  0  0
   44.4596   -5.7808    0.0000 O   0  0  0  0  0  0  0  0  0  0  0  0
   43.0378   -7.4092    0.0000 N   0  0  0  0  0  0  0  0  0  0  0  0
   43.0351   -8.2256    0.0000 C   0  0  0  0  0  0  0  0  0  0  0  0
   43.7421   -8.6371    0.0000 C   0  0  0  0  0  0  0  0  0  0  0  0
   44.4534   -8.2261    0.0000 C   0  0  0  0  0  0  0  0  0  0  0  0
   44.4526   -7.4111    0.0000 C   0  0  0  0  0  0  0  0  0  0  0  0
   40.2322   -2.5053    0.0000 C   0  0  0  0  0  0  0  0  0  0  0  0
   40.9375   -2.0925    0.0000 N   0  0  0  0  0  0  0  0  0  0  0  0
   40.7629   -1.2942    0.0000 C   0  0  0  0  0  0  0  0  0  0  0  0
   39.9496   -1.2135    0.0000 N   0  0  0  0  0  0  0  0  0  0  0  0
   39.6217   -1.9620    0.0000 C   0  0  0  0  0  0  0  0  0  0  0  0
   43.7440   -9.4537    0.0000 C   0  0  0  0  0  0  0  0  0  0  0  0
   43.7428  -10.2709    0.0000 N   0  0  0  0  0  0  0  0  0  0  0  0
  2 23  1  0  0  0  0
  2  3  2  0  0  0  0
  1  3  1  0  0  0  0
  1  4  1  0  0  0  0
  4 24  1  0  0  0  0
  2  5  1  0  0  0  0
  1  6  1  1  0  0  0
  6  7  2  0  0  0  0
  7  8  1  0  0  0  0
  8  9  2  0  0  0  0
  9 10  1  0  0  0  0
 10 11  2  0  0  0  0
  6 11  1  0  0  0  0
  1 12  1  0  0  0  0
 11 13  1  0  0  0  0
  8 14  1  0  0  0  0
 14 15  1  0  0  0  0
 15 16  1  0  0  0  0
 15 17  2  0  0  0  0
 16 18  2  0  0  0  0
 18 19  1  0  0  0  0
 19 20  2  0  0  0  0
 20 21  1  0  0  0  0
 21 22  2  0  0  0  0
 16 22  1  0  0  0  0
 23 24  1  0  0  0  0
 24 25  1  0  0  0  0
 25 26  2  0  0  0  0
 26 27  1  0  0  0  0
 23 27  2  0  0  0  0
 28 29  3  0  0  0  0
 20 28  1  0  0  0  0
M  END
> <MoleculeName>
CHEMBL4557890

> <pCHEMBL>
8.4

> <AssayDescription>
Inhibition of BACE1 (unknown origin)

> <PubmedId>
31413800

> <DocumentType>
PUBLICATION

> <TargetName>
Beta-secretase 1

> <TargetChemblId>
CHEMBL4822

> <TargetOrganism>
Homo sapiens

> <TargetComponentGenes>
BACE1

> <PDB>
6od6

> <Order>
729

> <spe_1>
0.5774169

> <spe_2>
0.702175

> <Scaffold>
7

$$$$
