
  -OEChem-06092216122D

 30 32  0     1  0  0  0  0  0999 V2000
   31.2514  -15.0520    0.0000 C   0  0  3  0  0  0  0  0  0  0  0  0
   31.9571  -14.6393    0.0000 C   0  0  0  0  0  0  0  0  0  0  0  0
   31.9526  -13.8262    0.0000 C   0  0  0  0  0  0  0  0  0  0  0  0
   31.2439  -13.4197    0.0000 O   0  0  0  0  0  0  0  0  0  0  0  0
   30.5382  -13.8325    0.0000 C   0  0  0  0  0  0  0  0  0  0  0  0
   30.5411  -14.6517    0.0000 N   0  0  0  0  0  0  0  0  0  0  0  0
   25.5998  -14.2513    0.0000 C   0  0  0  0  0  0  0  0  0  0  0  0
   25.5986  -15.0708    0.0000 C   0  0  0  0  0  0  0  0  0  0  0  0
   26.3067  -15.4798    0.0000 C   0  0  0  0  0  0  0  0  0  0  0  0
   27.0163  -15.0703    0.0000 C   0  0  0  0  0  0  0  0  0  0  0  0
   27.0135  -14.2477    0.0000 N   0  0  0  0  0  0  0  0  0  0  0  0
   26.3049  -13.8424    0.0000 C   0  0  0  0  0  0  0  0  0  0  0  0
   24.8886  -13.8411    0.0000 C   0  0  0  0  0  0  0  0  0  0  0  0
   24.1808  -13.4326    0.0000 N   0  0  0  0  0  0  0  0  0  0  0  0
   27.7247  -15.4778    0.0000 C   0  0  0  0  0  0  0  0  0  0  0  0
   27.7260  -16.2950    0.0000 O   0  0  0  0  0  0  0  0  0  0  0  0
   28.4318  -15.0681    0.0000 N   0  0  0  0  0  0  0  0  0  0  0  0
   29.1401  -15.4756    0.0000 C   0  0  0  0  0  0  0  0  0  0  0  0
   29.1368  -16.2912    0.0000 C   0  0  0  0  0  0  0  0  0  0  0  0
   29.8443  -16.6987    0.0000 C   0  0  0  0  0  0  0  0  0  0  0  0
   30.5523  -16.2889    0.0000 C   0  0  0  0  0  0  0  0  0  0  0  0
   30.5484  -15.4675    0.0000 C   0  0  0  0  0  0  0  0  0  0  0  0
   29.8403  -15.0638    0.0000 C   0  0  0  0  0  0  0  0  0  0  0  0
   31.2612  -16.6954    0.0000 F   0  0  0  0  0  0  0  0  0  0  0  0
   29.8286  -13.4271    0.0000 N   0  0  0  0  0  0  0  0  0  0  0  0
   31.9571  -15.4606    0.0000 C   0  0  0  0  0  0  0  0  0  0  0  0
   32.6586  -13.4147    0.0000 C   0  0  0  0  0  0  0  0  0  0  0  0
   33.3680  -13.8203    0.0000 F   0  0  0  0  0  0  0  0  0  0  0  0
   26.3065  -16.2970    0.0000 O   0  0  0  0  0  0  0  0  0  0  0  0
   25.5987  -16.7054    0.0000 C   0  0  0  0  0  0  0  0  0  0  0  0
  1  2  1  0  0  0  0
  1  6  1  0  0  0  0
  2  3  2  0  0  0  0
  3  4  1  0  0  0  0
  4  5  1  0  0  0  0
  5  6  2  0  0  0  0
  7  8  2  0  0  0  0
  8  9  1  0  0  0  0
  9 10  2  0  0  0  0
 10 11  1  0  0  0  0
 11 12  2  0  0  0  0
  7 12  1  0  0  0  0
 13 14  3  0  0  0  0
  7 13  1  0  0  0  0
 10 15  1  0  0  0  0
 15 16  2  0  0  0  0
 15 17  1  0  0  0  0
 17 18  1  0  0  0  0
 18 19  2  0  0  0  0
 19 20  1  0  0  0  0
 20 21  2  0  0  0  0
 21 22  1  0  0  0  0
 22 23  2  0  0  0  0
 18 23  1  0  0  0  0
 21 24  1  0  0  0  0
  1 22  1  0  0  0  0
  5 25  1  0  0  0  0
  1 26  1  6  0  0  0
  3 27  1  0  0  0  0
 27 28  1  0  0  0  0
  9 29  1  0  0  0  0
 29 30  1  0  0  0  0
M  END
> <MoleculeName>
CHEMBL4203079

> <pCHEMBL>
6.62

> <AssayDescription>
Inhibition of human recombinant BACE1 (43 to 545 residues) expressed in Escherichia coli BL21(DE3) using APP Swedish Lys-Met/Asn-Leu mutant as substrate incubated for 3 hrs by HTRF assay

> <PubmedId>
29733614

> <DocumentType>
PUBLICATION

> <TargetName>
Beta-secretase 1

> <TargetChemblId>
CHEMBL4822

> <TargetOrganism>
Homo sapiens

> <TargetComponentGenes>
BACE1

> <PDB>
7d2x

> <Order>
2019

> <spe_1>
0.8336247

> <spe_2>
-0.215009

> <Scaffold>
5

$$$$
