
  -OEChem-06092216122D

 38 43  0     1  0  0  0  0  0999 V2000
   -1.8064   -1.3705    0.0000 C   0  0  0  0  0  0  0  0  0  0  0  0
   -1.8076   -2.1974    0.0000 C   0  0  0  0  0  0  0  0  0  0  0  0
   -1.0933   -2.6101    0.0000 N   0  0  0  0  0  0  0  0  0  0  0  0
   -0.3772   -2.1969    0.0000 C   0  0  0  0  0  0  0  0  0  0  0  0
   -0.3801   -1.3669    0.0000 N   0  0  0  0  0  0  0  0  0  0  0  0
   -1.0951   -0.9580    0.0000 C   0  0  0  0  0  0  0  0  0  0  0  0
   -3.2329   -1.3742    0.0000 C   0  0  0  0  0  0  0  0  0  0  0  0
   -3.2340   -2.2010    0.0000 C   0  0  0  0  0  0  0  0  0  0  0  0
   -2.5196   -2.6137    0.0000 C   0  0  0  0  0  0  0  0  0  0  0  0
   -2.5214   -0.9616    0.0000 C   0  0  0  0  0  0  0  0  0  0  0  0
   -4.6544    1.0719    0.0000 C   0  0  0  0  0  0  0  0  0  0  0  0
   -4.6555    0.2450    0.0000 C   0  0  0  0  0  0  0  0  0  0  0  0
   -3.9411   -0.1677    0.0000 C   0  0  0  0  0  0  0  0  0  0  0  0
   -3.2251    0.2455    0.0000 C   0  0  0  0  0  0  0  0  0  0  0  0
   -3.2280    1.0755    0.0000 C   0  0  0  0  0  0  0  0  0  0  0  0
   -3.9429    1.4843    0.0000 C   0  0  0  0  0  0  0  0  0  0  0  0
   -0.3074    0.1725    0.0000 C   0  0  0  0  0  0  0  0  0  0  0  0
   -0.2900    1.0132    0.0000 C   0  0  0  0  0  0  0  0  0  0  0  0
   -1.0045    1.4463    0.0000 N   0  0  0  0  0  0  0  0  0  0  0  0
   -1.7448    1.0434    0.0000 C   0  0  0  0  0  0  0  0  0  0  0  0
   -2.4635    1.4765    0.0000 C   0  0  0  0  0  0  0  0  0  0  0  0
    0.3710   -1.0337    0.0000 C   0  0  3  0  0  0  0  0  0  0  0  0
    0.3957   -0.2574    0.0000 C   0  0  0  0  0  0  0  0  0  0  0  0
   -3.9472   -0.9510    0.0000 O   0  0  0  0  0  0  0  0  0  0  0  0
    0.4325    1.4104    0.0000 O   0  0  0  0  0  0  0  0  0  0  0  0
    0.3375   -2.6081    0.0000 N   0  0  0  0  0  0  0  0  0  0  0  0
    1.0541   -1.4903    0.0000 C   0  0  0  0  0  0  0  0  0  0  0  0
    1.0818   -2.3153    0.0000 C   0  0  0  0  0  0  0  0  0  0  0  0
    1.8061   -2.7017    0.0000 C   0  0  0  0  0  0  0  0  0  0  0  0
    2.5074   -2.2675    0.0000 C   0  0  0  0  0  0  0  0  0  0  0  0
    2.4797   -1.4425    0.0000 C   0  0  0  0  0  0  0  0  0  0  0  0
    1.7507   -1.0517    0.0000 C   0  0  0  0  0  0  0  0  0  0  0  0
   -0.9854    2.2707    0.0000 C   0  0  0  0  0  0  0  0  0  0  0  0
   -0.2604    2.6681    0.0000 C   0  0  0  0  0  0  0  0  0  0  0  0
   -0.2395    3.4887    0.0000 C   0  0  0  0  0  0  0  0  0  0  0  0
   -0.9418    3.9213    0.0000 C   0  0  0  0  0  0  0  0  0  0  0  0
   -1.6670    3.5270    0.0000 C   0  0  0  0  0  0  0  0  0  0  0  0
   -1.6899    2.7001    0.0000 C   0  0  0  0  0  0  0  0  0  0  0  0
  1 10  1  0  0  0  0
  7 10  2  0  0  0  0
  2  3  1  0  0  0  0
  5  6  1  0  0  0  0
 17 18  1  0  0  0  0
 18 19  1  0  0  0  0
 19 20  1  0  0  0  0
 15 21  1  0  0  0  0
 20 21  1  0  0  0  0
  5 22  1  0  0  0  0
 17 23  1  0  0  0  0
 22 23  1  0  0  0  0
  7 24  1  0  0  0  0
 13 24  1  0  0  0  0
 11 12  2  0  0  0  0
 18 25  2  0  0  0  0
  1  6  1  0  0  0  0
  4 26  1  0  0  0  0
 27 28  1  0  0  0  0
 12 13  1  0  0  0  0
  1  2  2  0  0  0  0
 13 14  2  0  0  0  0
  3  4  2  0  0  0  0
 14 15  1  0  0  0  0
  7  8  1  0  0  0  0
 27 32  1  0  0  0  0
 28 29  1  0  0  0  0
 29 30  1  0  0  0  0
 30 31  1  0  0  0  0
 31 32  1  0  0  0  0
 22 27  1  1  0  0  0
 15 16  2  0  0  0  0
 19 33  1  0  0  0  0
 33 34  1  0  0  0  0
 11 16  1  0  0  0  0
  8  9  2  0  0  0  0
  2  9  1  0  0  0  0
  4  5  1  0  0  0  0
 33 38  1  0  0  0  0
 34 35  1  0  0  0  0
 35 36  1  0  0  0  0
 36 37  1  0  0  0  0
 37 38  1  0  0  0  0
M  END
> <MoleculeName>
CHEMBL1098733

> <pCHEMBL>
8.3

> <AssayDescription>
Inhibition of BACE1

> <PubmedId>
20399652

> <DocumentType>
PUBLICATION

> <TargetName>
Beta-secretase 1

> <TargetChemblId>
CHEMBL4822

> <TargetOrganism>
Homo sapiens

> <TargetComponentGenes>
BACE1

> <PDB>
2q15

> <Order>
52

> <spe_1>
-1.417236

> <spe_2>
-0.4767608

> <Scaffold>
2

$$$$
