
  -OEChem-06092216122D

 28 30  0     1  0  0  0  0  0999 V2000
   30.0504  -13.8386    0.0000 C   0  0  3  0  0  0  0  0  0  0  0  0
   30.7561  -13.4259    0.0000 C   0  0  3  0  0  0  0  0  0  0  0  0
   30.7516  -12.6128    0.0000 C   0  0  3  0  0  0  0  0  0  0  0  0
   30.0429  -12.2063    0.0000 O   0  0  0  0  0  0  0  0  0  0  0  0
   29.3372  -12.6190    0.0000 C   0  0  0  0  0  0  0  0  0  0  0  0
   29.3401  -13.4383    0.0000 N   0  0  0  0  0  0  0  0  0  0  0  0
   24.3988  -13.0379    0.0000 C   0  0  0  0  0  0  0  0  0  0  0  0
   24.3976  -13.8574    0.0000 C   0  0  0  0  0  0  0  0  0  0  0  0
   25.1057  -14.2664    0.0000 C   0  0  0  0  0  0  0  0  0  0  0  0
   25.8153  -13.8569    0.0000 C   0  0  0  0  0  0  0  0  0  0  0  0
   25.8125  -13.0343    0.0000 N   0  0  0  0  0  0  0  0  0  0  0  0
   25.1039  -12.6290    0.0000 C   0  0  0  0  0  0  0  0  0  0  0  0
   26.5237  -14.2644    0.0000 C   0  0  0  0  0  0  0  0  0  0  0  0
   26.5250  -15.0816    0.0000 O   0  0  0  0  0  0  0  0  0  0  0  0
   27.2307  -13.8547    0.0000 N   0  0  0  0  0  0  0  0  0  0  0  0
   27.9391  -14.2622    0.0000 C   0  0  0  0  0  0  0  0  0  0  0  0
   27.9357  -15.0778    0.0000 C   0  0  0  0  0  0  0  0  0  0  0  0
   28.6433  -15.4852    0.0000 C   0  0  0  0  0  0  0  0  0  0  0  0
   29.3513  -15.0755    0.0000 C   0  0  0  0  0  0  0  0  0  0  0  0
   29.3474  -14.2541    0.0000 C   0  0  0  0  0  0  0  0  0  0  0  0
   28.6393  -13.8504    0.0000 C   0  0  0  0  0  0  0  0  0  0  0  0
   30.7628  -14.2469    0.0000 C   0  0  0  0  0  0  0  0  0  0  0  0
   28.6276  -12.2137    0.0000 N   0  0  0  0  0  0  0  0  0  0  0  0
   30.0602  -15.4820    0.0000 F   0  0  0  0  0  0  0  0  0  0  0  0
   31.4661  -13.8305    0.0000 F   0  0  0  0  0  0  0  0  0  0  0  0
   31.4576  -12.2013    0.0000 C   0  0  0  0  0  0  0  0  0  0  0  0
   31.4542  -11.3841    0.0000 F   0  0  0  0  0  0  0  0  0  0  0  0
   23.6910  -12.6295    0.0000 F   0  0  0  0  0  0  0  0  0  0  0  0
  1  2  1  0  0  0  0
  1  6  1  0  0  0  0
  2  3  1  0  0  0  0
  3  4  1  0  0  0  0
  4  5  1  0  0  0  0
  5  6  2  0  0  0  0
  7  8  2  0  0  0  0
  8  9  1  0  0  0  0
  9 10  2  0  0  0  0
 10 11  1  0  0  0  0
 11 12  2  0  0  0  0
  7 12  1  0  0  0  0
 10 13  1  0  0  0  0
 13 14  2  0  0  0  0
 13 15  1  0  0  0  0
 15 16  1  0  0  0  0
 16 17  2  0  0  0  0
 17 18  1  0  0  0  0
 18 19  2  0  0  0  0
 19 20  1  0  0  0  0
 20 21  2  0  0  0  0
 16 21  1  0  0  0  0
  1 20  1  0  0  0  0
  1 22  1  6  0  0  0
  5 23  1  0  0  0  0
 19 24  1  0  0  0  0
  2 25  1  6  0  0  0
  3 26  1  6  0  0  0
 26 27  1  0  0  0  0
  7 28  1  0  0  0  0
M  END
> <MoleculeName>
CHEMBL4226467

> <pCHEMBL>
7.59

> <AssayDescription>
Inhibition of recombinant human BACE1 (43 to 454 residues) expressed in Escherichia coli BL21(DE3) using Biotin-epsilon-amino-n-capronic acid-SEVNLDAEFRHDSGC-Eu after 3 hrs by HTRF assay

> <PubmedId>
29775538

> <DocumentType>
PUBLICATION

> <TargetName>
Beta-secretase 1

> <TargetChemblId>
CHEMBL4822

> <TargetOrganism>
Homo sapiens

> <TargetComponentGenes>
BACE1

> <PDB>
7d2x

> <Order>
899

> <spe_1>
0.3194433

> <spe_2>
-0.382646

> <Scaffold>
6

$$$$
