
  -OEChem-06092216122D

 29 32  0     1  0  0  0  0  0999 V2000
   42.0385  -14.8295    0.0000 C   0  0  3  0  0  0  0  0  0  0  0  0
   40.6176  -14.8295    0.0000 C   0  0  0  0  0  0  0  0  0  0  0  0
   41.3296  -15.2379    0.0000 N   0  0  0  0  0  0  0  0  0  0  0  0
   42.0417  -14.0045    0.0000 C   0  0  0  0  0  0  0  0  0  0  0  0
   39.9037  -15.2430    0.0000 N   0  0  0  0  0  0  0  0  0  0  0  0
   42.7519  -15.2437    0.0000 C   0  0  0  0  0  0  0  0  0  0  0  0
   42.7462  -16.0682    0.0000 C   0  0  0  0  0  0  0  0  0  0  0  0
   43.4588  -16.4823    0.0000 C   0  0  0  0  0  0  0  0  0  0  0  0
   44.1753  -16.0714    0.0000 C   0  0  0  0  0  0  0  0  0  0  0  0
   44.1747  -15.2421    0.0000 C   0  0  0  0  0  0  0  0  0  0  0  0
   43.4615  -14.8317    0.0000 C   0  0  0  0  0  0  0  0  0  0  0  0
   42.7510  -14.4128    0.0000 C   0  0  0  0  0  0  0  0  0  0  0  0
   43.4598  -14.0067    0.0000 F   0  0  0  0  0  0  0  0  0  0  0  0
   43.4565  -17.3073    0.0000 N   0  0  0  0  0  0  0  0  0  0  0  0
   44.1698  -17.7218    0.0000 C   0  0  0  0  0  0  0  0  0  0  0  0
   44.1674  -18.5469    0.0000 C   0  0  0  0  0  0  0  0  0  0  0  0
   44.8855  -17.3114    0.0000 O   0  0  0  0  0  0  0  0  0  0  0  0
   43.4500  -18.9554    0.0000 N   0  0  0  0  0  0  0  0  0  0  0  0
   43.4473  -19.7797    0.0000 C   0  0  0  0  0  0  0  0  0  0  0  0
   44.1611  -20.1951    0.0000 C   0  0  0  0  0  0  0  0  0  0  0  0
   44.8792  -19.7802    0.0000 C   0  0  0  0  0  0  0  0  0  0  0  0
   44.8784  -18.9573    0.0000 C   0  0  0  0  0  0  0  0  0  0  0  0
   40.6176  -14.0046    0.0000 C   0  0  0  0  0  0  0  0  0  0  0  0
   41.3296  -13.5878    0.0000 N   0  0  0  0  0  0  0  0  0  0  0  0
   41.1534  -12.7818    0.0000 N   0  0  0  0  0  0  0  0  0  0  0  0
   40.3323  -12.7004    0.0000 N   0  0  0  0  0  0  0  0  0  0  0  0
   40.0012  -13.4561    0.0000 N   0  0  0  0  0  0  0  0  0  0  0  0
   44.1630  -21.0195    0.0000 C   0  0  0  0  0  0  0  0  0  0  0  0
   44.1618  -21.8446    0.0000 N   0  0  0  0  0  0  0  0  0  0  0  0
  2 23  1  0  0  0  0
  2  3  2  0  0  0  0
  1  3  1  0  0  0  0
  1  4  1  0  0  0  0
  4 24  1  0  0  0  0
  2  5  1  0  0  0  0
  1  6  1  1  0  0  0
  6  7  2  0  0  0  0
  7  8  1  0  0  0  0
  8  9  2  0  0  0  0
  9 10  1  0  0  0  0
 10 11  2  0  0  0  0
  6 11  1  0  0  0  0
  1 12  1  0  0  0  0
 11 13  1  0  0  0  0
  8 14  1  0  0  0  0
 14 15  1  0  0  0  0
 15 16  1  0  0  0  0
 15 17  2  0  0  0  0
 16 18  2  0  0  0  0
 18 19  1  0  0  0  0
 19 20  2  0  0  0  0
 20 21  1  0  0  0  0
 21 22  2  0  0  0  0
 16 22  1  0  0  0  0
 23 24  1  0  0  0  0
 24 25  1  0  0  0  0
 25 26  2  0  0  0  0
 26 27  1  0  0  0  0
 23 27  2  0  0  0  0
 28 29  3  0  0  0  0
 20 28  1  0  0  0  0
M  END
> <MoleculeName>
CHEMBL4446937

> <pCHEMBL>
8.04

> <AssayDescription>
Inhibition of BACE1 (unknown origin)

> <PubmedId>
31413800

> <DocumentType>
PUBLICATION

> <TargetName>
Beta-secretase 1

> <TargetChemblId>
CHEMBL4822

> <TargetOrganism>
Homo sapiens

> <TargetComponentGenes>
BACE1

> <PDB>
6od6

> <Order>
2036

> <spe_1>
0.8379206

> <spe_2>
0.5100884

> <Scaffold>
7

$$$$
