
  -OEChem-06092216122D

 29 32  0     1  0  0  0  0  0999 V2000
    6.6909  -21.9170    0.0000 C   0  0  3  0  0  0  0  0  0  0  0  0
    7.1023  -22.6321    0.0000 C   0  0  0  0  0  0  0  0  0  0  0  0
    5.2667  -21.9170    0.0000 C   0  0  0  0  0  0  0  0  0  0  0  0
    5.9788  -22.3254    0.0000 N   0  0  0  0  0  0  0  0  0  0  0  0
    6.6909  -21.0920    0.0000 C   0  0  0  0  0  0  0  0  0  0  0  0
    4.5529  -22.3306    0.0000 N   0  0  0  0  0  0  0  0  0  0  0  0
    6.6852  -23.3423    0.0000 C   0  0  0  0  0  0  0  0  0  0  0  0
    7.0960  -24.0568    0.0000 C   0  0  0  0  0  0  0  0  0  0  0  0
    7.9219  -24.0586    0.0000 C   0  0  0  0  0  0  0  0  0  0  0  0
    8.3352  -23.3396    0.0000 C   0  0  0  0  0  0  0  0  0  0  0  0
    7.9221  -22.6280    0.0000 C   0  0  0  0  0  0  0  0  0  0  0  0
    6.6821  -24.7705    0.0000 N   0  0  0  0  0  0  0  0  0  0  0  0
    7.0933  -25.4858    0.0000 C   0  0  0  0  0  0  0  0  0  0  0  0
    6.6793  -26.1996    0.0000 C   0  0  0  0  0  0  0  0  0  0  0  0
    7.9183  -25.4874    0.0000 O   0  0  0  0  0  0  0  0  0  0  0  0
    5.8564  -26.1951    0.0000 N   0  0  0  0  0  0  0  0  0  0  0  0
    5.4426  -26.9079    0.0000 C   0  0  0  0  0  0  0  0  0  0  0  0
    5.8538  -27.6242    0.0000 C   0  0  0  0  0  0  0  0  0  0  0  0
    6.6831  -27.6232    0.0000 C   0  0  0  0  0  0  0  0  0  0  0  0
    7.0932  -26.9097    0.0000 C   0  0  0  0  0  0  0  0  0  0  0  0
    5.4409  -28.3384    0.0000 C   0  0  0  0  0  0  0  0  0  0  0  0
    7.4835  -21.7004    0.0000 C   0  0  0  0  0  0  0  0  0  0  0  0
    5.0301  -29.0498    0.0000 N   0  0  0  0  0  0  0  0  0  0  0  0
    5.2644  -21.0881    0.0000 C   0  0  0  0  0  0  0  0  0  0  0  0
    5.9788  -20.6754    0.0000 N   0  0  0  0  0  0  0  0  0  0  0  0
    5.8070  -19.8684    0.0000 C   0  0  0  0  0  0  0  0  0  0  0  0
    4.9864  -19.7824    0.0000 C   0  0  0  0  0  0  0  0  0  0  0  0
    4.6512  -20.5363    0.0000 C   0  0  0  0  0  0  0  0  0  0  0  0
    8.3319  -21.9119    0.0000 F   0  0  0  0  0  0  0  0  0  0  0  0
  1  2  1  0  0  0  0
  3 24  1  0  0  0  0
  3  4  2  0  0  0  0
  1  4  1  0  0  0  0
  1  5  1  0  0  0  0
  5 25  1  0  0  0  0
  3  6  1  0  0  0  0
  2  7  2  0  0  0  0
  7  8  1  0  0  0  0
  8  9  2  0  0  0  0
  9 10  1  0  0  0  0
 10 11  2  0  0  0  0
  2 11  1  0  0  0  0
  8 12  1  0  0  0  0
 12 13  1  0  0  0  0
 13 14  1  0  0  0  0
 13 15  2  0  0  0  0
 14 16  2  0  0  0  0
 16 17  1  0  0  0  0
 17 18  2  0  0  0  0
 18 19  1  0  0  0  0
 19 20  2  0  0  0  0
 14 20  1  0  0  0  0
 18 21  1  0  0  0  0
  1 22  1  6  0  0  0
 21 23  3  0  0  0  0
 24 25  1  0  0  0  0
 25 26  1  0  0  0  0
 26 27  2  0  0  0  0
 27 28  1  0  0  0  0
 24 28  2  0  0  0  0
 11 29  1  0  0  0  0
M  END
> <MoleculeName>
CHEMBL3261075

> <pCHEMBL>
8.21

> <AssayDescription>
Inhibition of BACE1 (unknown origin)

> <PubmedId>
31413800

> <DocumentType>
PUBLICATION

> <TargetName>
Beta-secretase 1

> <TargetChemblId>
CHEMBL4822

> <TargetOrganism>
Homo sapiens

> <TargetComponentGenes>
BACE1

> <PDB>
6od6

> <Order>
715

> <spe_1>
0.6165022

> <spe_2>
0.4807253

> <Scaffold>
7

$$$$
