
  -OEChem-06092216122D

 26 28  0     1  0  0  0  0  0999 V2000
    1.2990   -0.7500    0.0000 C   0  0  0  0  0  0  0  0  0  0  0  0
    1.2990    0.7500    0.0000 C   0  0  0  0  0  0  0  0  0  0  0  0
    0.0000    1.5000    0.0000 N   0  0  0  0  0  0  0  0  0  0  0  0
   -1.2990    0.7500    0.0000 C   0  0  3  0  0  0  0  0  0  0  0  0
   -1.2990   -0.7500    0.0000 C   0  0  0  0  0  0  0  0  0  0  0  0
    0.0000   -1.5000    0.0000 O   0  0  0  0  0  0  0  0  0  0  0  0
    2.3383    1.3500    0.0000 N   0  0  0  0  0  0  0  0  0  0  0  0
   -2.3238    0.1256    0.0000 C   0  0  0  0  0  0  0  0  0  0  0  0
   -1.2643    2.2302    0.0000 C   0  0  0  0  0  0  0  0  0  0  0  0
    0.0520    2.9495    0.0000 C   0  0  0  0  0  0  0  0  0  0  0  0
    0.0872    4.4491    0.0000 C   0  0  0  0  0  0  0  0  0  0  0  0
   -1.1938    5.2294    0.0000 C   0  0  0  0  0  0  0  0  0  0  0  0
   -2.5101    4.5101    0.0000 C   0  0  0  0  0  0  0  0  0  0  0  0
   -2.5453    3.0105    0.0000 C   0  0  0  0  0  0  0  0  0  0  0  0
    1.4028    5.1715    0.0000 N   0  0  0  0  0  0  0  0  0  0  0  0
    1.4359    6.6720    0.0000 C   0  0  0  0  0  0  0  0  0  0  0  0
    2.7514    7.3944    0.0000 C   0  0  0  0  0  0  0  0  0  0  0  0
    0.4099    7.2944    0.0000 O   0  0  0  0  0  0  0  0  0  0  0  0
    2.7867    8.8940    0.0000 N   0  0  0  0  0  0  0  0  0  0  0  0
    4.1030    9.6133    0.0000 C   0  0  0  0  0  0  0  0  0  0  0  0
    5.3840    8.8330    0.0000 C   0  0  0  0  0  0  0  0  0  0  0  0
    5.3489    7.3334    0.0000 N   0  0  0  0  0  0  0  0  0  0  0  0
    4.0326    6.6141    0.0000 C   0  0  0  0  0  0  0  0  0  0  0  0
   -3.5984    2.4351    0.0000 F   0  0  0  0  0  0  0  0  0  0  0  0
    6.7025    9.5500    0.0000 O   0  0  0  0  0  0  0  0  0  0  0  0
    7.7265    8.9244    0.0000 C   0  0  0  0  0  0  0  0  0  0  0  0
  1  2  1  0  0  0  0
  1  6  1  0  0  0  0
  2  3  2  0  0  0  0
  3  4  1  0  0  0  0
  4  5  1  0  0  0  0
  5  6  1  0  0  0  0
  2  7  1  0  0  0  0
  4  8  1  0  0  0  0
  4  9  1  1  0  0  0
  9 10  2  0  0  0  0
 10 11  1  0  0  0  0
 11 12  2  0  0  0  0
 12 13  1  0  0  0  0
 13 14  2  0  0  0  0
  9 14  1  0  0  0  0
 11 15  1  0  0  0  0
 15 16  1  0  0  0  0
 16 17  1  0  0  0  0
 16 18  2  0  0  0  0
 17 19  2  0  0  0  0
 19 20  1  0  0  0  0
 20 21  2  0  0  0  0
 21 22  1  0  0  0  0
 22 23  2  0  0  0  0
 17 23  1  0  0  0  0
 14 24  1  0  0  0  0
 21 25  1  0  0  0  0
 25 26  1  0  0  0  0
M  END
> <MoleculeName>
CHEMBL3634123

> <pCHEMBL>
7.36

> <AssayDescription>
Inhibition of BACE1 (unknown origin) using APP Swedish mutant harboring Lys-Met/Asn-Leu mutation in beta-secretase cleavage site as substrate by FRET assay

> <PubmedId>
26378740

> <DocumentType>
PUBLICATION

> <TargetName>
Beta-secretase 1

> <TargetChemblId>
CHEMBL4822

> <TargetOrganism>
Homo sapiens

> <TargetComponentGenes>
BACE1

> <PDB>
5clm

> <Order>
2005

> <spe_1>
-0.2358462

> <spe_2>
-0.1255521

> <Scaffold>
4

$$$$
