
  -OEChem-06092216122D

 30 32  0     1  0  0  0  0  0999 V2000
   19.4434  -18.9399    0.0000 C   0  0  3  0  0  0  0  0  0  0  0  0
   20.1491  -18.5271    0.0000 C   0  0  3  0  0  0  0  0  0  0  0  0
   20.1446  -17.7141    0.0000 C   0  0  3  0  0  0  0  0  0  0  0  0
   19.4359  -17.3076    0.0000 O   0  0  0  0  0  0  0  0  0  0  0  0
   18.7302  -17.7203    0.0000 C   0  0  0  0  0  0  0  0  0  0  0  0
   18.7331  -18.5395    0.0000 N   0  0  0  0  0  0  0  0  0  0  0  0
   13.7918  -18.1391    0.0000 C   0  0  0  0  0  0  0  0  0  0  0  0
   13.7906  -18.9587    0.0000 N   0  0  0  0  0  0  0  0  0  0  0  0
   14.4987  -19.3676    0.0000 C   0  0  0  0  0  0  0  0  0  0  0  0
   15.2083  -18.9582    0.0000 C   0  0  0  0  0  0  0  0  0  0  0  0
   15.2055  -18.1355    0.0000 N   0  0  0  0  0  0  0  0  0  0  0  0
   14.4969  -17.7303    0.0000 C   0  0  0  0  0  0  0  0  0  0  0  0
   15.9167  -19.3657    0.0000 C   0  0  0  0  0  0  0  0  0  0  0  0
   15.9180  -20.1829    0.0000 O   0  0  0  0  0  0  0  0  0  0  0  0
   16.6238  -18.9560    0.0000 N   0  0  0  0  0  0  0  0  0  0  0  0
   17.3321  -19.3635    0.0000 C   0  0  0  0  0  0  0  0  0  0  0  0
   17.3288  -20.1791    0.0000 C   0  0  0  0  0  0  0  0  0  0  0  0
   18.0363  -20.5865    0.0000 C   0  0  0  0  0  0  0  0  0  0  0  0
   18.7443  -20.1767    0.0000 C   0  0  0  0  0  0  0  0  0  0  0  0
   18.7404  -19.3553    0.0000 C   0  0  0  0  0  0  0  0  0  0  0  0
   18.0323  -18.9516    0.0000 C   0  0  0  0  0  0  0  0  0  0  0  0
   20.1558  -19.3481    0.0000 C   0  0  0  0  0  0  0  0  0  0  0  0
   18.0206  -17.3149    0.0000 N   0  0  0  0  0  0  0  0  0  0  0  0
   19.4532  -20.5833    0.0000 F   0  0  0  0  0  0  0  0  0  0  0  0
   20.8591  -18.9318    0.0000 F   0  0  0  0  0  0  0  0  0  0  0  0
   20.8506  -17.3025    0.0000 C   0  0  0  0  0  0  0  0  0  0  0  0
   20.8472  -16.4853    0.0000 F   0  0  0  0  0  0  0  0  0  0  0  0
   13.0840  -17.7307    0.0000 O   0  0  0  0  0  0  0  0  0  0  0  0
   12.3764  -18.1395    0.0000 C   0  0  0  0  0  0  0  0  0  0  0  0
   11.6686  -17.7310    0.0000 F   0  0  0  0  0  0  0  0  0  0  0  0
  1  2  1  0  0  0  0
  1  6  1  0  0  0  0
  2  3  1  0  0  0  0
  3  4  1  0  0  0  0
  4  5  1  0  0  0  0
  5  6  2  0  0  0  0
  7  8  2  0  0  0  0
  8  9  1  0  0  0  0
  9 10  2  0  0  0  0
 10 11  1  0  0  0  0
 11 12  2  0  0  0  0
  7 12  1  0  0  0  0
 10 13  1  0  0  0  0
 13 14  2  0  0  0  0
 13 15  1  0  0  0  0
 15 16  1  0  0  0  0
 16 17  2  0  0  0  0
 17 18  1  0  0  0  0
 18 19  2  0  0  0  0
 19 20  1  0  0  0  0
 20 21  2  0  0  0  0
 16 21  1  0  0  0  0
  1 20  1  0  0  0  0
  1 22  1  6  0  0  0
  5 23  1  0  0  0  0
 19 24  1  0  0  0  0
  2 25  1  6  0  0  0
  3 26  1  6  0  0  0
 26 27  1  0  0  0  0
  7 28  1  0  0  0  0
 28 29  1  0  0  0  0
 29 30  1  0  0  0  0
M  END
> <MoleculeName>
CHEMBL4227584

> <pCHEMBL>
7.93

> <AssayDescription>
Inhibition of recombinant human BACE1 (43 to 454 residues) expressed in Escherichia coli BL21(DE3) using Biotin-epsilon-amino-n-capronic acid-SEVNLDAEFRHDSGC-Eu after 3 hrs by HTRF assay

> <PubmedId>
29775538

> <DocumentType>
PUBLICATION

> <TargetName>
Beta-secretase 1

> <TargetChemblId>
CHEMBL4822

> <TargetOrganism>
Homo sapiens

> <TargetComponentGenes>
BACE1

> <PDB>
7d2x

> <Order>
1118

> <spe_1>
0.3900217

> <spe_2>
-0.5865434

> <Scaffold>
6

$$$$
