
  -OEChem-06092216122D

 25 27  0     1  0  0  0  0  0999 V2000
   30.6364   -3.2192    0.0000 C   0  0  0  0  0  0  0  0  0  0  0  0
   30.2319   -2.5135    0.0000 C   0  0  3  0  0  0  0  0  0  0  0  0
   29.8230   -3.2166    0.0000 C   0  0  0  0  0  0  0  0  0  0  0  0
   29.5303   -1.2918    0.0000 C   0  0  0  0  0  0  0  0  0  0  0  0
   29.5303   -2.1090    0.0000 N   0  0  0  0  0  0  0  0  0  0  0  0
   30.9409   -2.1090    0.0000 C   0  0  0  0  0  0  0  0  0  0  0  0
   30.9409   -1.2918    0.0000 C   0  0  0  0  0  0  0  0  0  0  0  0
   30.2356   -0.8791    0.0000 S   0  0  0  0  0  0  0  0  0  0  0  0
   29.0100   -3.2117    0.0000 C   0  0  0  0  0  0  0  0  0  0  0  0
   28.6011   -3.9140    0.0000 C   0  0  0  0  0  0  0  0  0  0  0  0
   29.0056   -4.6207    0.0000 C   0  0  0  0  0  0  0  0  0  0  0  0
   29.8233   -4.6207    0.0000 C   0  0  0  0  0  0  0  0  0  0  0  0
   30.2285   -3.9178    0.0000 C   0  0  0  0  0  0  0  0  0  0  0  0
   28.8214   -0.8853    0.0000 N   0  0  0  0  0  0  0  0  0  0  0  0
   31.0457   -3.9172    0.0000 F   0  0  0  0  0  0  0  0  0  0  0  0
   27.7839   -3.9110    0.0000 N   0  0  0  0  0  0  0  0  0  0  0  0
   27.3727   -4.6172    0.0000 C   0  0  0  0  0  0  0  0  0  0  0  0
   26.5556   -4.6142    0.0000 C   0  0  0  0  0  0  0  0  0  0  0  0
   27.7787   -5.3264    0.0000 O   0  0  0  0  0  0  0  0  0  0  0  0
   26.1543   -3.9057    0.0000 N   0  0  0  0  0  0  0  0  0  0  0  0
   25.3379   -3.9024    0.0000 C   0  0  0  0  0  0  0  0  0  0  0  0
   24.9258   -4.6091    0.0000 C   0  0  0  0  0  0  0  0  0  0  0  0
   25.3362   -5.3207    0.0000 C   0  0  0  0  0  0  0  0  0  0  0  0
   26.1513   -5.3206    0.0000 C   0  0  0  0  0  0  0  0  0  0  0  0
   24.1087   -4.6072    0.0000 Cl  0  0  0  0  0  0  0  0  0  0  0  0
  2  1  1  6  0  0  0
  2  3  1  0  0  0  0
  4  5  2  0  0  0  0
  4  8  1  0  0  0  0
  2  5  1  0  0  0  0
  2  6  1  0  0  0  0
  6  7  1  0  0  0  0
  7  8  1  0  0  0  0
  3  9  2  0  0  0  0
  9 10  1  0  0  0  0
 10 11  2  0  0  0  0
 11 12  1  0  0  0  0
 12 13  2  0  0  0  0
  3 13  1  0  0  0  0
  4 14  1  0  0  0  0
 13 15  1  0  0  0  0
 10 16  1  0  0  0  0
 16 17  1  0  0  0  0
 17 18  1  0  0  0  0
 17 19  2  0  0  0  0
 18 20  2  0  0  0  0
 20 21  1  0  0  0  0
 21 22  2  0  0  0  0
 22 23  1  0  0  0  0
 23 24  2  0  0  0  0
 18 24  1  0  0  0  0
 22 25  1  0  0  0  0
M  END
> <MoleculeName>
CHEMBL2347211

> <pCHEMBL>
8.17

> <AssayDescription>
Inhibition of BACE1 (unknown origin)

> <PubmedId>
29733614

> <DocumentType>
PUBLICATION

> <TargetName>
Beta-secretase 1

> <TargetChemblId>
CHEMBL4822

> <TargetOrganism>
Homo sapiens

> <TargetComponentGenes>
BACE1

> <PDB>
7d2x

> <Order>
2003

> <spe_1>
0.1660454

> <spe_2>
0.451915

> <Scaffold>
4

$$$$
