
  -OEChem-06092216122D

 30 32  0     1  0  0  0  0  0999 V2000
   11.6305  -17.4128    0.0000 C   0  0  3  0  0  0  0  0  0  0  0  0
   12.3363  -17.0001    0.0000 C   0  0  0  0  0  0  0  0  0  0  0  0
   12.3318  -16.1870    0.0000 C   0  0  0  0  0  0  0  0  0  0  0  0
   11.6231  -15.7805    0.0000 O   0  0  0  0  0  0  0  0  0  0  0  0
   10.9173  -16.1932    0.0000 C   0  0  0  0  0  0  0  0  0  0  0  0
   10.9202  -17.0125    0.0000 N   0  0  0  0  0  0  0  0  0  0  0  0
    5.9789  -16.6121    0.0000 C   0  0  0  0  0  0  0  0  0  0  0  0
    5.9778  -17.4316    0.0000 N   0  0  0  0  0  0  0  0  0  0  0  0
    6.6858  -17.8406    0.0000 C   0  0  0  0  0  0  0  0  0  0  0  0
    7.3955  -17.4311    0.0000 C   0  0  0  0  0  0  0  0  0  0  0  0
    7.3927  -16.6085    0.0000 N   0  0  0  0  0  0  0  0  0  0  0  0
    6.6840  -16.2032    0.0000 C   0  0  0  0  0  0  0  0  0  0  0  0
    8.1038  -17.8386    0.0000 C   0  0  0  0  0  0  0  0  0  0  0  0
    8.1051  -18.6558    0.0000 O   0  0  0  0  0  0  0  0  0  0  0  0
    8.8109  -17.4289    0.0000 N   0  0  0  0  0  0  0  0  0  0  0  0
    9.5193  -17.8364    0.0000 C   0  0  0  0  0  0  0  0  0  0  0  0
    9.5159  -18.6520    0.0000 C   0  0  0  0  0  0  0  0  0  0  0  0
   10.2234  -19.0594    0.0000 C   0  0  0  0  0  0  0  0  0  0  0  0
   10.9315  -18.6497    0.0000 C   0  0  0  0  0  0  0  0  0  0  0  0
   10.9276  -17.8283    0.0000 C   0  0  0  0  0  0  0  0  0  0  0  0
   10.2195  -17.4245    0.0000 C   0  0  0  0  0  0  0  0  0  0  0  0
   11.6404  -19.0562    0.0000 F   0  0  0  0  0  0  0  0  0  0  0  0
   10.2078  -15.7879    0.0000 N   0  0  0  0  0  0  0  0  0  0  0  0
   12.3363  -17.8214    0.0000 C   0  0  0  0  0  0  0  0  0  0  0  0
   13.0378  -15.7755    0.0000 C   0  0  0  0  0  0  0  0  0  0  0  0
   13.7472  -16.1811    0.0000 F   0  0  0  0  0  0  0  0  0  0  0  0
    6.6856  -18.6577    0.0000 N   0  0  0  0  0  0  0  0  0  0  0  0
    5.2711  -16.2036    0.0000 O   0  0  0  0  0  0  0  0  0  0  0  0
    4.5635  -16.6124    0.0000 C   0  0  0  0  0  0  0  0  0  0  0  0
    3.8557  -16.2040    0.0000 F   0  0  0  0  0  0  0  0  0  0  0  0
  1  2  1  0  0  0  0
  1  6  1  0  0  0  0
  2  3  2  0  0  0  0
  3  4  1  0  0  0  0
  4  5  1  0  0  0  0
  5  6  2  0  0  0  0
  7  8  2  0  0  0  0
  8  9  1  0  0  0  0
  9 10  2  0  0  0  0
 10 11  1  0  0  0  0
 11 12  2  0  0  0  0
  7 12  1  0  0  0  0
 10 13  1  0  0  0  0
 13 14  2  0  0  0  0
 13 15  1  0  0  0  0
 15 16  1  0  0  0  0
 16 17  2  0  0  0  0
 17 18  1  0  0  0  0
 18 19  2  0  0  0  0
 19 20  1  0  0  0  0
 20 21  2  0  0  0  0
 16 21  1  0  0  0  0
 19 22  1  0  0  0  0
  1 20  1  0  0  0  0
  5 23  1  0  0  0  0
  1 24  1  6  0  0  0
  3 25  1  0  0  0  0
 25 26  1  0  0  0  0
  9 27  1  0  0  0  0
  7 28  1  0  0  0  0
 28 29  1  0  0  0  0
 29 30  1  0  0  0  0
M  END
> <MoleculeName>
CHEMBL4211790

> <pCHEMBL>
7.46

> <AssayDescription>
Inhibition of human recombinant BACE1 (43 to 545 residues) expressed in Escherichia coli BL21(DE3) using APP Swedish Lys-Met/Asn-Leu mutant as substrate incubated for 3 hrs by HTRF assay

> <PubmedId>
29733614

> <DocumentType>
PUBLICATION

> <TargetName>
Beta-secretase 1

> <TargetChemblId>
CHEMBL4822

> <TargetOrganism>
Homo sapiens

> <TargetComponentGenes>
BACE1

> <PDB>
7d2x

> <Order>
2027

> <spe_1>
0.8895065

> <spe_2>
-0.6565615

> <Scaffold>
5

$$$$
