
  -OEChem-06092216122D

 32 34  0     1  0  0  0  0  0999 V2000
    8.9024  -24.0329    0.0000 C   0  0  3  0  0  0  0  0  0  0  0  0
    9.6123  -23.6201    0.0000 C   0  0  3  0  0  0  0  0  0  0  0  0
    9.6078  -22.8030    0.0000 C   0  0  3  0  0  0  0  0  0  0  0  0
    8.8950  -22.3923    0.0000 O   0  0  0  0  0  0  0  0  0  0  0  0
    8.1851  -22.8092    0.0000 C   0  0  0  0  0  0  0  0  0  0  0  0
    8.1880  -23.6325    0.0000 N   0  0  0  0  0  0  0  0  0  0  0  0
    3.2219  -23.2280    0.0000 C   0  0  0  0  0  0  0  0  0  0  0  0
    3.2208  -24.0517    0.0000 N   0  0  0  0  0  0  0  0  0  0  0  0
    3.9330  -24.4648    0.0000 C   0  0  0  0  0  0  0  0  0  0  0  0
    4.6468  -24.0512    0.0000 C   0  0  0  0  0  0  0  0  0  0  0  0
    4.6439  -23.2244    0.0000 N   0  0  0  0  0  0  0  0  0  0  0  0
    3.9312  -22.8191    0.0000 C   0  0  0  0  0  0  0  0  0  0  0  0
    5.3592  -24.4628    0.0000 C   0  0  0  0  0  0  0  0  0  0  0  0
    5.3605  -25.2841    0.0000 O   0  0  0  0  0  0  0  0  0  0  0  0
    6.0704  -24.0490    0.0000 N   0  0  0  0  0  0  0  0  0  0  0  0
    6.7829  -24.4606    0.0000 C   0  0  0  0  0  0  0  0  0  0  0  0
    6.7796  -25.2804    0.0000 C   0  0  0  0  0  0  0  0  0  0  0  0
    7.4871  -25.6878    0.0000 C   0  0  0  0  0  0  0  0  0  0  0  0
    8.1993  -25.2780    0.0000 C   0  0  0  0  0  0  0  0  0  0  0  0
    8.1953  -24.4525    0.0000 C   0  0  0  0  0  0  0  0  0  0  0  0
    7.4831  -24.0446    0.0000 C   0  0  0  0  0  0  0  0  0  0  0  0
    9.6190  -24.4452    0.0000 C   0  0  0  0  0  0  0  0  0  0  0  0
    7.4714  -22.3997    0.0000 N   0  0  0  0  0  0  0  0  0  0  0  0
    8.9123  -25.6845    0.0000 F   0  0  0  0  0  0  0  0  0  0  0  0
   10.3264  -24.0248    0.0000 F   0  0  0  0  0  0  0  0  0  0  0  0
   10.3179  -22.3873    0.0000 C   0  0  3  0  0  0  0  0  0  0  0  0
    2.5100  -22.8196    0.0000 O   0  0  0  0  0  0  0  0  0  0  0  0
    1.7983  -23.2283    0.0000 C   0  0  0  0  0  0  0  0  0  0  0  0
    1.0905  -22.8199    0.0000 F   0  0  0  0  0  0  0  0  0  0  0  0
   10.3145  -21.5660    0.0000 F   0  0  0  0  0  0  0  0  0  0  0  0
   11.0314  -22.7970    0.0000 C   0  0  0  0  0  0  0  0  0  0  0  0
   10.3139  -23.2115    0.0000 H   0  0  0  0  0  0  0  0  0  0  0  0
  1  2  1  0  0  0  0
  1  6  1  0  0  0  0
  2  3  1  0  0  0  0
  3  4  1  0  0  0  0
  4  5  1  0  0  0  0
  5  6  2  0  0  0  0
  7  8  2  0  0  0  0
  8  9  1  0  0  0  0
  9 10  2  0  0  0  0
 10 11  1  0  0  0  0
 11 12  2  0  0  0  0
  7 12  1  0  0  0  0
 10 13  1  0  0  0  0
 13 14  2  0  0  0  0
 13 15  1  0  0  0  0
 15 16  1  0  0  0  0
 16 17  2  0  0  0  0
 17 18  1  0  0  0  0
 18 19  2  0  0  0  0
 19 20  1  0  0  0  0
 20 21  2  0  0  0  0
 16 21  1  0  0  0  0
  1 20  1  0  0  0  0
  1 22  1  6  0  0  0
  5 23  1  0  0  0  0
 19 24  1  0  0  0  0
  2 25  1  6  0  0  0
  3 26  1  0  0  0  0
  7 27  1  0  0  0  0
 27 28  1  0  0  0  0
 28 29  1  0  0  0  0
 26 30  1  1  0  0  0
 26 31  1  0  0  0  0
  3 32  1  1  0  0  0
M  END
> <MoleculeName>
CHEMBL4225154

> <pCHEMBL>
7.8

> <AssayDescription>
Inhibition of recombinant human BACE1 (43 to 454 residues) expressed in Escherichia coli BL21(DE3) using Biotin-epsilon-amino-n-capronic acid-SEVNLDAEFRHDSGC-Eu after 3 hrs by HTRF assay

> <PubmedId>
29775538

> <DocumentType>
PUBLICATION

> <TargetName>
Beta-secretase 1

> <TargetChemblId>
CHEMBL4822

> <TargetOrganism>
Homo sapiens

> <TargetComponentGenes>
BACE1

> <PDB>
7d2x

> <Order>
1239

> <spe_1>
0.4046937

> <spe_2>
-0.7439181

> <Scaffold>
6

$$$$
