
  -OEChem-06092216122D

 26 28  0     1  0  0  0  0  0999 V2000
   15.0500    1.3417    0.0000 C   0  0  0  0  0  0  0  0  0  0  0  0
   15.0500    0.5167    0.0000 C   0  0  0  0  0  0  0  0  0  0  0  0
   16.4740    1.3417    0.0000 C   0  0  0  0  0  0  0  0  0  0  0  0
   15.7620    1.7583    0.0000 N   0  0  0  0  0  0  0  0  0  0  0  0
   16.4740    0.5167    0.0000 C   0  0  3  0  0  0  0  0  0  0  0  0
   15.7623    0.1079    0.0000 N   0  0  0  0  0  0  0  0  0  0  0  0
   17.1920    0.0997    0.0000 C   0  0  0  0  0  0  0  0  0  0  0  0
   17.1891   -0.7263    0.0000 C   0  0  0  0  0  0  0  0  0  0  0  0
   17.8990   -1.1395    0.0000 C   0  0  0  0  0  0  0  0  0  0  0  0
   18.6163   -0.7313    0.0000 C   0  0  0  0  0  0  0  0  0  0  0  0
   18.6193    0.0946    0.0000 C   0  0  0  0  0  0  0  0  0  0  0  0
   17.9048    0.5124    0.0000 C   0  0  0  0  0  0  0  0  0  0  0  0
   15.7620    2.5833    0.0000 C   0  0  0  0  0  0  0  0  0  0  0  0
   17.1897    1.7521    0.0000 O   0  0  0  0  0  0  0  0  0  0  0  0
   14.3361    0.1032    0.0000 N   0  0  0  0  0  0  0  0  0  0  0  0
   19.3356    0.5039    0.0000 N   0  0  0  0  0  0  0  0  0  0  0  0
   20.0482    0.0881    0.0000 C   0  0  0  0  0  0  0  0  0  0  0  0
   20.7645    0.4974    0.0000 C   0  0  0  0  0  0  0  0  0  0  0  0
   20.0444   -0.7369    0.0000 O   0  0  0  0  0  0  0  0  0  0  0  0
   21.4773    0.0767    0.0000 C   0  0  0  0  0  0  0  0  0  0  0  0
   22.1915    0.4824    0.0000 C   0  0  0  0  0  0  0  0  0  0  0  0
   22.1995    1.3078    0.0000 C   0  0  0  0  0  0  0  0  0  0  0  0
   21.4871    1.7257    0.0000 C   0  0  0  0  0  0  0  0  0  0  0  0
   20.7666    1.3183    0.0000 N   0  0  0  0  0  0  0  0  0  0  0  0
   17.1833    0.9333    0.0000 C   0  0  0  0  0  0  0  0  0  0  0  0
   22.9174    1.7143    0.0000 Cl  0  0  0  0  0  0  0  0  0  0  0  0
  1  2  1  0  0  0  0
  4 13  1  0  0  0  0
  7  8  2  0  0  0  0
  3 14  2  0  0  0  0
  1  4  1  0  0  0  0
  2 15  1  0  0  0  0
  2  6  2  0  0  0  0
 11 16  1  0  0  0  0
  3  5  1  0  0  0  0
 16 17  1  0  0  0  0
  3  4  1  0  0  0  0
 17 18  1  0  0  0  0
  5  6  1  0  0  0  0
 17 19  2  0  0  0  0
 18 20  2  0  0  0  0
  7 12  1  0  0  0  0
  8  9  1  0  0  0  0
  9 10  2  0  0  0  0
 10 11  1  0  0  0  0
 18 24  1  0  0  0  0
 20 21  1  0  0  0  0
 21 22  2  0  0  0  0
 22 23  1  0  0  0  0
 23 24  2  0  0  0  0
 11 12  2  0  0  0  0
  5 25  1  6  0  0  0
  5  7  1  0  0  0  0
 22 26  1  0  0  0  0
M  END
> <MoleculeName>
CHEMBL1923160

> <pCHEMBL>
6.49

> <AssayDescription>
Inhibition of human recombinant BACE1 using fluorescent Mca-Ser-Glu-Val-Asn-Leu-Asp-Ala-Glu-Phe-Lys(Dnp)-OH peptide as substrate after 1 hr by spectroflurorimeter analysis

> <PubmedId>
22071305

> <DocumentType>
PUBLICATION

> <TargetName>
Beta-secretase 1

> <TargetChemblId>
CHEMBL4822

> <TargetOrganism>
Homo sapiens

> <TargetComponentGenes>
BACE1

> <PDB>
3u6a

> <Order>
476

> <spe_1>
-0.3286566

> <spe_2>
0.9350042

> <Scaffold>
3

$$$$
