
  -OEChem-06092216122D

 27 29  0     1  0  0  0  0  0999 V2000
    9.1707  -16.0467    0.0000 C   0  0  3  0  0  0  0  0  0  0  0  0
    9.8765  -15.6339    0.0000 C   0  0  0  0  0  0  0  0  0  0  0  0
    9.8719  -14.8209    0.0000 C   0  0  0  0  0  0  0  0  0  0  0  0
    9.1633  -14.4144    0.0000 O   0  0  0  0  0  0  0  0  0  0  0  0
    8.4575  -14.8271    0.0000 C   0  0  0  0  0  0  0  0  0  0  0  0
    8.4604  -15.6463    0.0000 N   0  0  0  0  0  0  0  0  0  0  0  0
    3.5191  -15.2459    0.0000 C   0  0  0  0  0  0  0  0  0  0  0  0
    3.5180  -16.0655    0.0000 C   0  0  0  0  0  0  0  0  0  0  0  0
    4.2260  -16.4744    0.0000 C   0  0  0  0  0  0  0  0  0  0  0  0
    4.9357  -16.0650    0.0000 C   0  0  0  0  0  0  0  0  0  0  0  0
    4.9328  -15.2423    0.0000 N   0  0  0  0  0  0  0  0  0  0  0  0
    4.2242  -14.8371    0.0000 C   0  0  0  0  0  0  0  0  0  0  0  0
    2.8079  -14.8357    0.0000 C   0  0  0  0  0  0  0  0  0  0  0  0
    2.1001  -14.4273    0.0000 N   0  0  0  0  0  0  0  0  0  0  0  0
    5.6440  -16.4725    0.0000 C   0  0  0  0  0  0  0  0  0  0  0  0
    5.6453  -17.2897    0.0000 O   0  0  0  0  0  0  0  0  0  0  0  0
    6.3511  -16.0628    0.0000 N   0  0  0  0  0  0  0  0  0  0  0  0
    7.0594  -16.4703    0.0000 C   0  0  0  0  0  0  0  0  0  0  0  0
    7.0561  -17.2859    0.0000 C   0  0  0  0  0  0  0  0  0  0  0  0
    7.7636  -17.6933    0.0000 C   0  0  0  0  0  0  0  0  0  0  0  0
    8.4717  -17.2836    0.0000 C   0  0  0  0  0  0  0  0  0  0  0  0
    8.4677  -16.4621    0.0000 C   0  0  0  0  0  0  0  0  0  0  0  0
    7.7596  -16.0584    0.0000 C   0  0  0  0  0  0  0  0  0  0  0  0
    9.1805  -17.6901    0.0000 F   0  0  0  0  0  0  0  0  0  0  0  0
    7.7480  -14.4217    0.0000 N   0  0  0  0  0  0  0  0  0  0  0  0
    9.8765  -16.4553    0.0000 C   0  0  0  0  0  0  0  0  0  0  0  0
   10.5864  -16.0386    0.0000 C   0  0  0  0  0  0  0  0  0  0  0  0
  1  2  1  0  0  0  0
  1  6  1  0  0  0  0
  2  3  2  0  0  0  0
  3  4  1  0  0  0  0
  4  5  1  0  0  0  0
  5  6  2  0  0  0  0
  7  8  2  0  0  0  0
  8  9  1  0  0  0  0
  9 10  2  0  0  0  0
 10 11  1  0  0  0  0
 11 12  2  0  0  0  0
  7 12  1  0  0  0  0
 13 14  3  0  0  0  0
  7 13  1  0  0  0  0
 10 15  1  0  0  0  0
 15 16  2  0  0  0  0
 15 17  1  0  0  0  0
 17 18  1  0  0  0  0
 18 19  2  0  0  0  0
 19 20  1  0  0  0  0
 20 21  2  0  0  0  0
 21 22  1  0  0  0  0
 22 23  2  0  0  0  0
 18 23  1  0  0  0  0
 21 24  1  0  0  0  0
  1 22  1  0  0  0  0
  5 25  1  0  0  0  0
  1 26  1  6  0  0  0
  2 27  1  0  0  0  0
M  END
> <MoleculeName>
CHEMBL4205130

> <pCHEMBL>
6.39

> <AssayDescription>
Inhibition of human recombinant BACE1 (43 to 545 residues) expressed in Escherichia coli BL21(DE3) using APP Swedish Lys-Met/Asn-Leu mutant as substrate incubated for 3 hrs by HTRF assay

> <PubmedId>
29733614

> <DocumentType>
PUBLICATION

> <TargetName>
Beta-secretase 1

> <TargetChemblId>
CHEMBL4822

> <TargetOrganism>
Homo sapiens

> <TargetComponentGenes>
BACE1

> <PDB>
7d2x

> <Order>
2022

> <spe_1>
0.5014885

> <spe_2>
0.1431233

> <Scaffold>
5

$$$$
