
  -OEChem-06092216122D

 28 30  0     1  0  0  0  0  0999 V2000
   23.1661   -4.0777    0.0000 C   0  0  3  0  0  0  0  0  0  0  0  0
   23.8719   -3.6650    0.0000 C   0  0  0  0  0  0  0  0  0  0  0  0
   23.8674   -2.8519    0.0000 C   0  0  0  0  0  0  0  0  0  0  0  0
   23.1587   -2.4454    0.0000 O   0  0  0  0  0  0  0  0  0  0  0  0
   22.4529   -2.8582    0.0000 C   0  0  0  0  0  0  0  0  0  0  0  0
   22.4559   -3.6774    0.0000 N   0  0  0  0  0  0  0  0  0  0  0  0
   18.9311   -4.0960    0.0000 C   0  0  0  0  0  0  0  0  0  0  0  0
   19.6395   -4.5035    0.0000 C   0  0  0  0  0  0  0  0  0  0  0  0
   19.6407   -5.3207    0.0000 O   0  0  0  0  0  0  0  0  0  0  0  0
   20.3465   -4.0938    0.0000 N   0  0  0  0  0  0  0  0  0  0  0  0
   21.0549   -4.5013    0.0000 C   0  0  0  0  0  0  0  0  0  0  0  0
   21.0515   -5.3169    0.0000 C   0  0  0  0  0  0  0  0  0  0  0  0
   21.7590   -5.7244    0.0000 C   0  0  0  0  0  0  0  0  0  0  0  0
   22.4671   -5.3146    0.0000 C   0  0  0  0  0  0  0  0  0  0  0  0
   22.4632   -4.4932    0.0000 C   0  0  0  0  0  0  0  0  0  0  0  0
   21.7551   -4.0895    0.0000 C   0  0  0  0  0  0  0  0  0  0  0  0
   23.1760   -5.7211    0.0000 F   0  0  0  0  0  0  0  0  0  0  0  0
   21.7434   -2.4528    0.0000 N   0  0  0  0  0  0  0  0  0  0  0  0
   23.8719   -4.4863    0.0000 C   0  0  0  0  0  0  0  0  0  0  0  0
   24.5734   -2.4404    0.0000 C   0  0  0  0  0  0  0  0  0  0  0  0
   25.2828   -2.8460    0.0000 F   0  0  0  0  0  0  0  0  0  0  0  0
   18.8473   -3.2872    0.0000 N   0  0  0  0  0  0  0  0  0  0  0  0
   18.0477   -3.1186    0.0000 C   0  0  0  0  0  0  0  0  0  0  0  0
   17.6402   -3.8270    0.0000 O   0  0  0  0  0  0  0  0  0  0  0  0
   18.1881   -4.4333    0.0000 C   0  0  0  0  0  0  0  0  0  0  0  0
   17.7142   -2.3725    0.0000 C   0  0  0  0  0  0  0  0  0  0  0  0
   18.1935   -1.7107    0.0000 F   0  0  0  0  0  0  0  0  0  0  0  0
   16.9013   -2.2884    0.0000 F   0  0  0  0  0  0  0  0  0  0  0  0
  1  2  1  0  0  0  0
  1  6  1  0  0  0  0
  2  3  2  0  0  0  0
  3  4  1  0  0  0  0
  4  5  1  0  0  0  0
  5  6  2  0  0  0  0
  7  8  1  0  0  0  0
  8  9  2  0  0  0  0
  8 10  1  0  0  0  0
 10 11  1  0  0  0  0
 11 12  2  0  0  0  0
 12 13  1  0  0  0  0
 13 14  2  0  0  0  0
 14 15  1  0  0  0  0
 15 16  2  0  0  0  0
 11 16  1  0  0  0  0
 14 17  1  0  0  0  0
  1 15  1  0  0  0  0
  5 18  1  0  0  0  0
  1 19  1  6  0  0  0
  3 20  1  0  0  0  0
 20 21  1  0  0  0  0
  7 22  1  0  0  0  0
 22 23  2  0  0  0  0
 23 24  1  0  0  0  0
 24 25  1  0  0  0  0
  7 25  2  0  0  0  0
 23 26  1  0  0  0  0
 26 27  1  0  0  0  0
 26 28  1  0  0  0  0
M  END
> <MoleculeName>
CHEMBL4212335

> <pCHEMBL>
7.03

> <AssayDescription>
Inhibition of human recombinant BACE1 (43 to 545 residues) expressed in Escherichia coli BL21(DE3) using APP Swedish Lys-Met/Asn-Leu mutant as substrate incubated for 3 hrs by HTRF assay

> <PubmedId>
29733614

> <DocumentType>
PUBLICATION

> <TargetName>
Beta-secretase 1

> <TargetChemblId>
CHEMBL4822

> <TargetOrganism>
Homo sapiens

> <TargetComponentGenes>
BACE1

> <PDB>
7d2x

> <Order>
2028

> <spe_1>
1.003084

> <spe_2>
-0.4006647

> <Scaffold>
5

$$$$
