
  -OEChem-06092216122D

 38 43  0     1  0  0  0  0  0999 V2000
    6.6807   -9.3541    0.0000 C   0  0  0  0  0  0  0  0  0  0  0  0
    6.6796  -10.1811    0.0000 C   0  0  0  0  0  0  0  0  0  0  0  0
    7.3941  -10.5937    0.0000 N   0  0  0  0  0  0  0  0  0  0  0  0
    8.1101  -10.1806    0.0000 C   0  0  0  0  0  0  0  0  0  0  0  0
    8.1073   -9.3505    0.0000 N   0  0  0  0  0  0  0  0  0  0  0  0
    7.3923   -8.9416    0.0000 C   0  0  0  0  0  0  0  0  0  0  0  0
    5.2542   -9.3578    0.0000 C   0  0  0  0  0  0  0  0  0  0  0  0
    5.2530  -10.1847    0.0000 C   0  0  0  0  0  0  0  0  0  0  0  0
    5.9676  -10.5973    0.0000 C   0  0  0  0  0  0  0  0  0  0  0  0
    5.9658   -8.9452    0.0000 C   0  0  0  0  0  0  0  0  0  0  0  0
    3.8327   -6.9115    0.0000 C   0  0  0  0  0  0  0  0  0  0  0  0
    3.8315   -7.7385    0.0000 C   0  0  0  0  0  0  0  0  0  0  0  0
    4.5459   -8.1512    0.0000 C   0  0  0  0  0  0  0  0  0  0  0  0
    5.2620   -7.7380    0.0000 C   0  0  0  0  0  0  0  0  0  0  0  0
    5.2591   -6.9079    0.0000 C   0  0  0  0  0  0  0  0  0  0  0  0
    4.5441   -6.4990    0.0000 C   0  0  0  0  0  0  0  0  0  0  0  0
    8.1800   -7.8110    0.0000 C   0  0  0  0  0  0  0  0  0  0  0  0
    8.1974   -6.9702    0.0000 C   0  0  0  0  0  0  0  0  0  0  0  0
    7.4828   -6.5370    0.0000 N   0  0  0  0  0  0  0  0  0  0  0  0
    6.7425   -6.9400    0.0000 C   0  0  0  0  0  0  0  0  0  0  0  0
    6.0238   -6.5068    0.0000 C   0  0  0  0  0  0  0  0  0  0  0  0
    8.8584   -9.0172    0.0000 C   0  0  3  0  0  0  0  0  0  0  0  0
    8.8831   -8.2409    0.0000 C   0  0  0  0  0  0  0  0  0  0  0  0
    4.5398   -8.9346    0.0000 O   0  0  0  0  0  0  0  0  0  0  0  0
    8.9200   -6.5730    0.0000 O   0  0  0  0  0  0  0  0  0  0  0  0
    8.8249  -10.5917    0.0000 N   0  0  0  0  0  0  0  0  0  0  0  0
    9.5416   -9.4739    0.0000 C   0  0  0  0  0  0  0  0  0  0  0  0
    9.5693  -10.2990    0.0000 C   0  0  0  0  0  0  0  0  0  0  0  0
   10.2936  -10.6854    0.0000 C   0  0  0  0  0  0  0  0  0  0  0  0
   10.9950  -10.2511    0.0000 C   0  0  0  0  0  0  0  0  0  0  0  0
   10.9673   -9.4260    0.0000 C   0  0  0  0  0  0  0  0  0  0  0  0
   10.2382   -9.0352    0.0000 C   0  0  0  0  0  0  0  0  0  0  0  0
    7.5019   -5.7126    0.0000 C   0  0  0  0  0  0  0  0  0  0  0  0
    8.2250   -5.3213    0.0000 C   0  0  0  0  0  0  0  0  0  0  0  0
    8.2460   -4.5005    0.0000 C   0  0  0  0  0  0  0  0  0  0  0  0
    7.5436   -4.0680    0.0000 O   0  0  0  0  0  0  0  0  0  0  0  0
    6.8184   -4.4623    0.0000 C   0  0  0  0  0  0  0  0  0  0  0  0
    6.7956   -5.2892    0.0000 C   0  0  0  0  0  0  0  0  0  0  0  0
  1 10  1  0  0  0  0
  7 10  2  0  0  0  0
  2  3  1  0  0  0  0
  5  6  1  0  0  0  0
 17 18  1  0  0  0  0
 18 19  1  0  0  0  0
 19 20  1  0  0  0  0
 15 21  1  0  0  0  0
 20 21  1  0  0  0  0
  5 22  1  0  0  0  0
 17 23  1  0  0  0  0
 22 23  1  0  0  0  0
  7 24  1  0  0  0  0
 13 24  1  0  0  0  0
 11 12  2  0  0  0  0
 18 25  2  0  0  0  0
  1  6  1  0  0  0  0
  4 26  1  0  0  0  0
 27 28  1  0  0  0  0
 12 13  1  0  0  0  0
  1  2  2  0  0  0  0
 13 14  2  0  0  0  0
  3  4  2  0  0  0  0
 14 15  1  0  0  0  0
  7  8  1  0  0  0  0
 27 32  1  0  0  0  0
 28 29  1  0  0  0  0
 29 30  1  0  0  0  0
 30 31  1  0  0  0  0
 31 32  1  0  0  0  0
 22 27  1  1  0  0  0
 15 16  2  0  0  0  0
 19 33  1  0  0  0  0
 33 34  1  0  0  0  0
 11 16  1  0  0  0  0
  8  9  2  0  0  0  0
  2  9  1  0  0  0  0
  4  5  1  0  0  0  0
 33 38  1  0  0  0  0
 34 35  1  0  0  0  0
 35 36  1  0  0  0  0
 36 37  1  0  0  0  0
 37 38  1  0  0  0  0
M  END
> <MoleculeName>
CHEMBL1097057

> <pCHEMBL>
7.77

> <AssayDescription>
Inhibition of BACE1

> <PubmedId>
20399652

> <DocumentType>
PUBLICATION

> <TargetName>
Beta-secretase 1

> <TargetChemblId>
CHEMBL4822

> <TargetOrganism>
Homo sapiens

> <TargetComponentGenes>
BACE1

> <PDB>
2q15

> <Order>
55

> <spe_1>
-1.452618

> <spe_2>
-0.4413055

> <Scaffold>

$$$$
