
  -OEChem-06092216122D

 29 31  0     1  0  0  0  0  0999 V2000
    1.2990   -0.7500    0.0000 C   0  0  0  0  0  0  0  0  0  0  0  0
    1.2990    0.7500    0.0000 C   0  0  0  0  0  0  0  0  0  0  0  0
    0.0000    1.5000    0.0000 N   0  0  0  0  0  0  0  0  0  0  0  0
   -1.2990    0.7500    0.0000 C   0  0  3  0  0  0  0  0  0  0  0  0
   -1.2990   -0.7500    0.0000 C   0  0  3  0  0  0  0  0  0  0  0  0
    0.0000   -1.5000    0.0000 O   0  0  0  0  0  0  0  0  0  0  0  0
    2.3383    1.3500    0.0000 N   0  0  0  0  0  0  0  0  0  0  0  0
   -1.2707    1.9497    0.0000 C   0  0  0  0  0  0  0  0  0  0  0  0
   -2.2239   -0.4063    0.0000 C   0  0  0  0  0  0  0  0  0  0  0  0
   -1.6779   -1.8034    0.0000 C   0  0  0  0  0  0  0  0  0  0  0  0
   -2.6148   -2.9748    0.0000 C   0  0  0  0  0  0  0  0  0  0  0  0
   -4.0977   -2.7491    0.0000 C   0  0  0  0  0  0  0  0  0  0  0  0
   -4.6437   -1.3520    0.0000 C   0  0  0  0  0  0  0  0  0  0  0  0
   -3.7068   -0.1806    0.0000 C   0  0  0  0  0  0  0  0  0  0  0  0
   -2.0714   -4.3738    0.0000 N   0  0  0  0  0  0  0  0  0  0  0  0
   -3.0105   -5.5445    0.0000 C   0  0  0  0  0  0  0  0  0  0  0  0
   -2.4671   -6.9435    0.0000 C   0  0  0  0  0  0  0  0  0  0  0  0
   -4.1965   -5.3618    0.0000 O   0  0  0  0  0  0  0  0  0  0  0  0
   -3.4040   -8.1149    0.0000 N   0  0  0  0  0  0  0  0  0  0  0  0
   -2.8580   -9.5120    0.0000 C   0  0  0  0  0  0  0  0  0  0  0  0
   -1.3751   -9.7378    0.0000 C   0  0  0  0  0  0  0  0  0  0  0  0
   -0.4381   -8.5664    0.0000 N   0  0  0  0  0  0  0  0  0  0  0  0
   -0.9841   -7.1693    0.0000 C   0  0  0  0  0  0  0  0  0  0  0  0
   -0.9383  -10.8555    0.0000 Cl  0  0  0  0  0  0  0  0  0  0  0  0
   -4.1436    0.9371    0.0000 F   0  0  0  0  0  0  0  0  0  0  0  0
   -2.5988   -1.5004    0.0000 C   0  0  0  0  0  0  0  0  0  0  0  0
   -3.6384   -0.9011    0.0000 F   0  0  0  0  0  0  0  0  0  0  0  0
   -2.5984   -2.7004    0.0000 F   0  0  0  0  0  0  0  0  0  0  0  0
   -3.6377   -2.1009    0.0000 F   0  0  0  0  0  0  0  0  0  0  0  0
  1  2  1  0  0  0  0
  1  6  1  0  0  0  0
  2  3  2  0  0  0  0
  3  4  1  0  0  0  0
  4  5  1  0  0  0  0
  5  6  1  0  0  0  0
  2  7  1  0  0  0  0
  4  8  1  0  0  0  0
  4  9  1  1  0  0  0
  9 10  2  0  0  0  0
 10 11  1  0  0  0  0
 11 12  2  0  0  0  0
 12 13  1  0  0  0  0
 13 14  2  0  0  0  0
  9 14  1  0  0  0  0
 11 15  1  0  0  0  0
 15 16  1  0  0  0  0
 16 17  1  0  0  0  0
 16 18  2  0  0  0  0
 17 19  2  0  0  0  0
 19 20  1  0  0  0  0
 20 21  2  0  0  0  0
 21 22  1  0  0  0  0
 22 23  2  0  0  0  0
 17 23  1  0  0  0  0
 21 24  1  0  0  0  0
 14 25  1  0  0  0  0
 26 27  1  0  0  0  0
 26 28  1  0  0  0  0
 26 29  1  0  0  0  0
  5 26  1  1  0  0  0
M  END
> <MoleculeName>
CHEMBL3634128

> <pCHEMBL>
7.54

> <AssayDescription>
Inhibition of BACE1 (unknown origin) using APP Swedish mutant harboring Lys-Met/Asn-Leu mutation in beta-secretase cleavage site as substrate by FRET assay

> <PubmedId>
26378740

> <DocumentType>
PUBLICATION

> <TargetName>
Beta-secretase 1

> <TargetChemblId>
CHEMBL4822

> <TargetOrganism>
Homo sapiens

> <TargetComponentGenes>
BACE1

> <PDB>
5clm

> <Order>
2010

> <spe_1>
-0.4247496

> <spe_2>
0.1593608

> <Scaffold>
4

$$$$

  -OEChem-06092216122D

 29 31  0     1  0  0  0  0  0999 V2000
    1.2990   -0.7500    0.0000 C   0  0  0  0  0  0  0  0  0  0  0  0
    1.2990    0.7500    0.0000 C   0  0  0  0  0  0  0  0  0  0  0  0
    0.0000    1.5000    0.0000 N   0  0  0  0  0  0  0  0  0  0  0  0
   -1.2990    0.7500    0.0000 C   0  0  3  0  0  0  0  0  0  0  0  0
   -1.2990   -0.7500    0.0000 C   0  0  3  0  0  0  0  0  0  0  0  0
    0.0000   -1.5000    0.0000 O   0  0  0  0  0  0  0  0  0  0  0  0
    2.3383    1.3500    0.0000 N   0  0  0  0  0  0  0  0  0  0  0  0
   -1.2707    1.9497    0.0000 C   0  0  0  0  0  0  0  0  0  0  0  0
   -2.2239   -0.4063    0.0000 C   0  0  0  0  0  0  0  0  0  0  0  0
   -1.6779   -1.8034    0.0000 C   0  0  0  0  0  0  0  0  0  0  0  0
   -2.6148   -2.9748    0.0000 C   0  0  0  0  0  0  0  0  0  0  0  0
   -4.0977   -2.7491    0.0000 C   0  0  0  0  0  0  0  0  0  0  0  0
   -4.6437   -1.3520    0.0000 C   0  0  0  0  0  0  0  0  0  0  0  0
   -3.7068   -0.1806    0.0000 C   0  0  0  0  0  0  0  0  0  0  0  0
   -2.0714   -4.3738    0.0000 N   0  0  0  0  0  0  0  0  0  0  0  0
   -3.0105   -5.5445    0.0000 C   0  0  0  0  0  0  0  0  0  0  0  0
   -2.4671   -6.9435    0.0000 C   0  0  0  0  0  0  0  0  0  0  0  0
   -4.1965   -5.3618    0.0000 O   0  0  0  0  0  0  0  0  0  0  0  0
   -3.4040   -8.1149    0.0000 N   0  0  0  0  0  0  0  0  0  0  0  0
   -2.8580   -9.5120    0.0000 C   0  0  0  0  0  0  0  0  0  0  0  0
   -1.3751   -9.7378    0.0000 C   0  0  0  0  0  0  0  0  0  0  0  0
   -0.4381   -8.5664    0.0000 N   0  0  0  0  0  0  0  0  0  0  0  0
   -0.9841   -7.1693    0.0000 C   0  0  0  0  0  0  0  0  0  0  0  0
   -0.9383  -10.8555    0.0000 Cl  0  0  0  0  0  0  0  0  0  0  0  0
   -4.1436    0.9371    0.0000 F   0  0  0  0  0  0  0  0  0  0  0  0
   -2.5988   -1.5004    0.0000 C   0  0  0  0  0  0  0  0  0  0  0  0
   -3.6384   -0.9011    0.0000 F   0  0  0  0  0  0  0  0  0  0  0  0
   -2.5984   -2.7004    0.0000 F   0  0  0  0  0  0  0  0  0  0  0  0
   -3.6377   -2.1009    0.0000 F   0  0  0  0  0  0  0  0  0  0  0  0
  1  2  1  0  0  0  0
  1  6  1  0  0  0  0
  2  3  2  0  0  0  0
  3  4  1  0  0  0  0
  4  5  1  0  0  0  0
  5  6  1  0  0  0  0
  2  7  1  0  0  0  0
  4  8  1  0  0  0  0
  4  9  1  1  0  0  0
  9 10  2  0  0  0  0
 10 11  1  0  0  0  0
 11 12  2  0  0  0  0
 12 13  1  0  0  0  0
 13 14  2  0  0  0  0
  9 14  1  0  0  0  0
 11 15  1  0  0  0  0
 15 16  1  0  0  0  0
 16 17  1  0  0  0  0
 16 18  2  0  0  0  0
 17 19  2  0  0  0  0
 19 20  1  0  0  0  0
 20 21  2  0  0  0  0
 21 22  1  0  0  0  0
 22 23  2  0  0  0  0
 17 23  1  0  0  0  0
 21 24  1  0  0  0  0
 14 25  1  0  0  0  0
 26 27  1  0  0  0  0
 26 28  1  0  0  0  0
 26 29  1  0  0  0  0
  5 26  1  1  0  0  0
M  END
> <MoleculeName>
CHEMBL3634129

> <pCHEMBL>
6.96

> <AssayDescription>
Inhibition of BACE1 (unknown origin) using APP Swedish mutant harboring Lys-Met/Asn-Leu mutation in beta-secretase cleavage site as substrate by FRET assay

> <PubmedId>
26378740

> <DocumentType>
PUBLICATION

> <TargetName>
Beta-secretase 1

> <TargetChemblId>
CHEMBL4822

> <TargetOrganism>
Homo sapiens

> <TargetComponentGenes>
BACE1

> <PDB>
5clm

> <Order>
2011

> <spe_1>
-0.4310044

> <spe_2>
0.1619232

> <Scaffold>
4

$$$$
