
  -OEChem-06092216122D

 29 32  0     1  0  0  0  0  0999 V2000
   32.9023   -2.8189    0.0000 C   0  0  3  0  0  0  0  0  0  0  0  0
   31.4949   -2.8189    0.0000 C   0  0  0  0  0  0  0  0  0  0  0  0
   32.2002   -3.2234    0.0000 N   0  0  0  0  0  0  0  0  0  0  0  0
   32.9054   -2.0017    0.0000 C   0  0  0  0  0  0  0  0  0  0  0  0
   30.7878   -3.2285    0.0000 N   0  0  0  0  0  0  0  0  0  0  0  0
   33.6090   -3.2292    0.0000 C   0  0  0  0  0  0  0  0  0  0  0  0
   33.6033   -4.0457    0.0000 C   0  0  0  0  0  0  0  0  0  0  0  0
   34.3092   -4.4560    0.0000 C   0  0  0  0  0  0  0  0  0  0  0  0
   35.0189   -4.0490    0.0000 C   0  0  0  0  0  0  0  0  0  0  0  0
   35.0182   -3.2276    0.0000 C   0  0  0  0  0  0  0  0  0  0  0  0
   34.3117   -2.8211    0.0000 C   0  0  0  0  0  0  0  0  0  0  0  0
   33.6080   -2.4062    0.0000 C   0  0  0  0  0  0  0  0  0  0  0  0
   34.3101   -2.0039    0.0000 F   0  0  0  0  0  0  0  0  0  0  0  0
   34.3068   -5.2732    0.0000 N   0  0  0  0  0  0  0  0  0  0  0  0
   35.0133   -5.6838    0.0000 C   0  0  0  0  0  0  0  0  0  0  0  0
   35.0110   -6.5010    0.0000 C   0  0  0  0  0  0  0  0  0  0  0  0
   35.7222   -5.2773    0.0000 O   0  0  0  0  0  0  0  0  0  0  0  0
   34.3005   -6.9057    0.0000 N   0  0  0  0  0  0  0  0  0  0  0  0
   34.2977   -7.7221    0.0000 C   0  0  0  0  0  0  0  0  0  0  0  0
   35.0048   -8.1335    0.0000 C   0  0  0  0  0  0  0  0  0  0  0  0
   35.7160   -7.7226    0.0000 C   0  0  0  0  0  0  0  0  0  0  0  0
   35.7153   -6.9075    0.0000 C   0  0  0  0  0  0  0  0  0  0  0  0
   35.0035   -8.9507    0.0000 C   0  0  0  0  0  0  0  0  0  0  0  0
   31.4949   -2.0018    0.0000 C   0  0  0  0  0  0  0  0  0  0  0  0
   32.2002   -1.5890    0.0000 N   0  0  0  0  0  0  0  0  0  0  0  0
   32.0256   -0.7906    0.0000 C   0  0  0  0  0  0  0  0  0  0  0  0
   31.2123   -0.7100    0.0000 C   0  0  0  0  0  0  0  0  0  0  0  0
   30.8844   -1.4585    0.0000 N   0  0  0  0  0  0  0  0  0  0  0  0
   35.0054   -9.7674    0.0000 N   0  0  0  0  0  0  0  0  0  0  0  0
  2 24  1  0  0  0  0
  2  3  2  0  0  0  0
  1  3  1  0  0  0  0
  1  4  1  0  0  0  0
  4 25  1  0  0  0  0
  2  5  1  0  0  0  0
  1  6  1  1  0  0  0
  6  7  2  0  0  0  0
  7  8  1  0  0  0  0
  8  9  2  0  0  0  0
  9 10  1  0  0  0  0
 10 11  2  0  0  0  0
  6 11  1  0  0  0  0
  1 12  1  0  0  0  0
 11 13  1  0  0  0  0
  8 14  1  0  0  0  0
 14 15  1  0  0  0  0
 15 16  1  0  0  0  0
 15 17  2  0  0  0  0
 16 18  2  0  0  0  0
 18 19  1  0  0  0  0
 19 20  2  0  0  0  0
 20 21  1  0  0  0  0
 21 22  2  0  0  0  0
 16 22  1  0  0  0  0
 20 23  1  0  0  0  0
 24 25  1  0  0  0  0
 25 26  1  0  0  0  0
 26 27  2  0  0  0  0
 27 28  1  0  0  0  0
 24 28  2  0  0  0  0
 23 29  3  0  0  0  0
M  END
> <MoleculeName>
CHEMBL4525199

> <pCHEMBL>
7.54

> <AssayDescription>
Inhibition of BACE1 (unknown origin)

> <PubmedId>
31413800

> <DocumentType>
PUBLICATION

> <TargetName>
Beta-secretase 1

> <TargetChemblId>
CHEMBL4822

> <TargetOrganism>
Homo sapiens

> <TargetComponentGenes>
BACE1

> <PDB>
6od6

> <Order>
2039

> <spe_1>
0.5713649

> <spe_2>
0.6388311

> <Scaffold>
7

$$$$
