
  -OEChem-06092216122D

 28 30  0     1  0  0  0  0  0999 V2000
   19.4392   -4.0736    0.0000 C   0  0  3  0  0  0  0  0  0  0  0  0
   20.1450   -3.6609    0.0000 C   0  0  0  0  0  0  0  0  0  0  0  0
   20.1405   -2.8478    0.0000 C   0  0  0  0  0  0  0  0  0  0  0  0
   19.4318   -2.4413    0.0000 O   0  0  0  0  0  0  0  0  0  0  0  0
   18.7261   -2.8540    0.0000 C   0  0  0  0  0  0  0  0  0  0  0  0
   18.7290   -3.6733    0.0000 N   0  0  0  0  0  0  0  0  0  0  0  0
   13.7877   -3.2729    0.0000 C   0  0  0  0  0  0  0  0  0  0  0  0
   13.7865   -4.0924    0.0000 C   0  0  0  0  0  0  0  0  0  0  0  0
   14.4946   -4.5014    0.0000 C   0  0  0  0  0  0  0  0  0  0  0  0
   15.2042   -4.0919    0.0000 C   0  0  0  0  0  0  0  0  0  0  0  0
   15.2014   -3.2693    0.0000 N   0  0  0  0  0  0  0  0  0  0  0  0
   14.4928   -2.8640    0.0000 C   0  0  0  0  0  0  0  0  0  0  0  0
   13.0765   -2.8626    0.0000 C   0  0  0  0  0  0  0  0  0  0  0  0
   12.3687   -2.4542    0.0000 N   0  0  0  0  0  0  0  0  0  0  0  0
   15.9126   -4.4994    0.0000 C   0  0  0  0  0  0  0  0  0  0  0  0
   15.9138   -5.3166    0.0000 O   0  0  0  0  0  0  0  0  0  0  0  0
   16.6196   -4.0897    0.0000 N   0  0  0  0  0  0  0  0  0  0  0  0
   17.3280   -4.4972    0.0000 C   0  0  0  0  0  0  0  0  0  0  0  0
   17.3246   -5.3128    0.0000 C   0  0  0  0  0  0  0  0  0  0  0  0
   18.0321   -5.7202    0.0000 C   0  0  0  0  0  0  0  0  0  0  0  0
   18.7402   -5.3105    0.0000 C   0  0  0  0  0  0  0  0  0  0  0  0
   18.7363   -4.4891    0.0000 C   0  0  0  0  0  0  0  0  0  0  0  0
   18.0282   -4.0853    0.0000 C   0  0  0  0  0  0  0  0  0  0  0  0
   19.4491   -5.7170    0.0000 F   0  0  0  0  0  0  0  0  0  0  0  0
   18.0165   -2.4487    0.0000 N   0  0  0  0  0  0  0  0  0  0  0  0
   20.1450   -4.4822    0.0000 C   0  0  0  0  0  0  0  0  0  0  0  0
   20.8465   -2.4363    0.0000 C   0  0  0  0  0  0  0  0  0  0  0  0
   20.1440   -5.2994    0.0000 F   0  0  0  0  0  0  0  0  0  0  0  0
  1  2  1  0  0  0  0
  1  6  1  0  0  0  0
  2  3  2  0  0  0  0
  3  4  1  0  0  0  0
  4  5  1  0  0  0  0
  5  6  2  0  0  0  0
  7  8  2  0  0  0  0
  8  9  1  0  0  0  0
  9 10  2  0  0  0  0
 10 11  1  0  0  0  0
 11 12  2  0  0  0  0
  7 12  1  0  0  0  0
 13 14  3  0  0  0  0
  7 13  1  0  0  0  0
 10 15  1  0  0  0  0
 15 16  2  0  0  0  0
 15 17  1  0  0  0  0
 17 18  1  0  0  0  0
 18 19  2  0  0  0  0
 19 20  1  0  0  0  0
 20 21  2  0  0  0  0
 21 22  1  0  0  0  0
 22 23  2  0  0  0  0
 18 23  1  0  0  0  0
 21 24  1  0  0  0  0
  1 22  1  0  0  0  0
  5 25  1  0  0  0  0
  1 26  1  6  0  0  0
  3 27  1  0  0  0  0
 26 28  1  0  0  0  0
M  END
> <MoleculeName>
CHEMBL4208552

> <pCHEMBL>
6.99

> <AssayDescription>
Inhibition of human recombinant BACE1 (43 to 545 residues) expressed in Escherichia coli BL21(DE3) using APP Swedish Lys-Met/Asn-Leu mutant as substrate incubated for 3 hrs by HTRF assay

> <PubmedId>
29733614

> <DocumentType>
PUBLICATION

> <TargetName>
Beta-secretase 1

> <TargetChemblId>
CHEMBL4822

> <TargetOrganism>
Homo sapiens

> <TargetComponentGenes>
BACE1

> <PDB>
7d2x

> <Order>
2026

> <spe_1>
0.6515806

> <spe_2>
0.1239496

> <Scaffold>
5

$$$$
