
  -OEChem-06092216122D

 28 31  0     1  0  0  0  0  0999 V2000
    4.2418  -14.2629    0.0000 C   0  0  3  0  0  0  0  0  0  0  0  0
    2.8209  -14.2629    0.0000 C   0  0  0  0  0  0  0  0  0  0  0  0
    3.5329  -14.6713    0.0000 N   0  0  0  0  0  0  0  0  0  0  0  0
    4.2450  -13.4379    0.0000 C   0  0  0  0  0  0  0  0  0  0  0  0
    2.1070  -14.6764    0.0000 N   0  0  0  0  0  0  0  0  0  0  0  0
    4.9552  -14.6771    0.0000 C   0  0  0  0  0  0  0  0  0  0  0  0
    4.9495  -15.5015    0.0000 C   0  0  0  0  0  0  0  0  0  0  0  0
    5.6622  -15.9157    0.0000 C   0  0  0  0  0  0  0  0  0  0  0  0
    6.3787  -15.5048    0.0000 C   0  0  0  0  0  0  0  0  0  0  0  0
    6.3781  -14.6755    0.0000 C   0  0  0  0  0  0  0  0  0  0  0  0
    5.6648  -14.2651    0.0000 C   0  0  0  0  0  0  0  0  0  0  0  0
    4.9543  -13.8463    0.0000 C   0  0  0  0  0  0  0  0  0  0  0  0
    5.6598  -16.7407    0.0000 N   0  0  0  0  0  0  0  0  0  0  0  0
    6.3731  -17.1553    0.0000 C   0  0  0  0  0  0  0  0  0  0  0  0
    6.3707  -17.9803    0.0000 C   0  0  0  0  0  0  0  0  0  0  0  0
    7.0888  -16.7449    0.0000 O   0  0  0  0  0  0  0  0  0  0  0  0
    5.6534  -18.3889    0.0000 N   0  0  0  0  0  0  0  0  0  0  0  0
    5.6506  -19.2131    0.0000 C   0  0  0  0  0  0  0  0  0  0  0  0
    6.3644  -19.6285    0.0000 C   0  0  0  0  0  0  0  0  0  0  0  0
    7.0825  -19.2136    0.0000 C   0  0  0  0  0  0  0  0  0  0  0  0
    7.0817  -18.3907    0.0000 C   0  0  0  0  0  0  0  0  0  0  0  0
    2.8209  -13.4380    0.0000 C   0  0  0  0  0  0  0  0  0  0  0  0
    3.5329  -13.0212    0.0000 N   0  0  0  0  0  0  0  0  0  0  0  0
    3.3567  -12.2152    0.0000 N   0  0  0  0  0  0  0  0  0  0  0  0
    2.5356  -12.1338    0.0000 C   0  0  0  0  0  0  0  0  0  0  0  0
    2.2046  -12.8895    0.0000 C   0  0  0  0  0  0  0  0  0  0  0  0
    6.3664  -20.4530    0.0000 C   0  0  0  0  0  0  0  0  0  0  0  0
    6.3651  -21.2780    0.0000 N   0  0  0  0  0  0  0  0  0  0  0  0
  2 22  1  0  0  0  0
  2  3  2  0  0  0  0
  1  3  1  0  0  0  0
  1  4  1  0  0  0  0
  4 23  1  0  0  0  0
  2  5  1  0  0  0  0
  1  6  1  1  0  0  0
  6  7  2  0  0  0  0
  7  8  1  0  0  0  0
  8  9  2  0  0  0  0
  9 10  1  0  0  0  0
 10 11  2  0  0  0  0
  6 11  1  0  0  0  0
  1 12  1  0  0  0  0
  8 13  1  0  0  0  0
 13 14  1  0  0  0  0
 14 15  1  0  0  0  0
 14 16  2  0  0  0  0
 15 17  2  0  0  0  0
 17 18  1  0  0  0  0
 18 19  2  0  0  0  0
 19 20  1  0  0  0  0
 20 21  2  0  0  0  0
 15 21  1  0  0  0  0
 22 23  1  0  0  0  0
 23 24  1  0  0  0  0
 24 25  2  0  0  0  0
 25 26  1  0  0  0  0
 22 26  2  0  0  0  0
 27 28  3  0  0  0  0
 19 27  1  0  0  0  0
M  END
> <MoleculeName>
CHEMBL4521954

> <pCHEMBL>
8.34

> <AssayDescription>
Inhibition of BACE1 (unknown origin)

> <PubmedId>
31413800

> <DocumentType>
PUBLICATION

> <TargetName>
Beta-secretase 1

> <TargetChemblId>
CHEMBL4822

> <TargetOrganism>
Homo sapiens

> <TargetComponentGenes>
BACE1

> <PDB>
6od6

> <Order>
709

> <spe_1>
0.5624111

> <spe_2>
1.015764

> <Scaffold>
7

$$$$
