
  -OEChem-06092216122D

 29 31  0     0  0  0  0  0  0999 V2000
    6.2083   -6.1542    0.0000 C   0  0  0  0  0  0  0  0  0  0  0  0
    6.2083   -6.9792    0.0000 C   0  0  0  0  0  0  0  0  0  0  0  0
    7.6324   -6.1542    0.0000 C   0  0  0  0  0  0  0  0  0  0  0  0
    6.9204   -5.7375    0.0000 N   0  0  0  0  0  0  0  0  0  0  0  0
    7.6324   -6.9792    0.0000 C   0  0  0  0  0  0  0  0  0  0  0  0
    6.9206   -7.3880    0.0000 N   0  0  0  0  0  0  0  0  0  0  0  0
    8.3503   -7.3962    0.0000 C   0  0  0  0  0  0  0  0  0  0  0  0
    8.3474   -8.2221    0.0000 C   0  0  0  0  0  0  0  0  0  0  0  0
    9.0573   -8.6353    0.0000 C   0  0  0  0  0  0  0  0  0  0  0  0
    9.7747   -8.2272    0.0000 C   0  0  0  0  0  0  0  0  0  0  0  0
    9.7776   -7.4012    0.0000 C   0  0  0  0  0  0  0  0  0  0  0  0
    9.0631   -6.9834    0.0000 C   0  0  0  0  0  0  0  0  0  0  0  0
    6.9204   -4.9125    0.0000 C   0  0  0  0  0  0  0  0  0  0  0  0
    8.3480   -5.7438    0.0000 O   0  0  0  0  0  0  0  0  0  0  0  0
    5.4944   -7.3926    0.0000 N   0  0  0  0  0  0  0  0  0  0  0  0
   10.4939   -6.9920    0.0000 N   0  0  0  0  0  0  0  0  0  0  0  0
   11.2065   -7.4077    0.0000 C   0  0  0  0  0  0  0  0  0  0  0  0
   11.9229   -6.9984    0.0000 C   0  0  0  0  0  0  0  0  0  0  0  0
   11.2028   -8.2327    0.0000 O   0  0  0  0  0  0  0  0  0  0  0  0
   12.6356   -7.4191    0.0000 C   0  0  0  0  0  0  0  0  0  0  0  0
   13.3498   -7.0134    0.0000 C   0  0  0  0  0  0  0  0  0  0  0  0
   13.3578   -6.1881    0.0000 C   0  0  0  0  0  0  0  0  0  0  0  0
   12.6454   -5.7701    0.0000 C   0  0  0  0  0  0  0  0  0  0  0  0
   11.9250   -6.1462    0.0000 N   0  0  0  0  0  0  0  0  0  0  0  0
    8.3417   -6.5625    0.0000 C   0  0  0  0  0  0  0  0  0  0  0  0
   14.0757   -5.7815    0.0000 C   0  0  0  0  0  0  0  0  0  0  0  0
   14.7867   -6.2000    0.0000 F   0  0  0  0  0  0  0  0  0  0  0  0
   14.0826   -4.9566    0.0000 F   0  0  0  0  0  0  0  0  0  0  0  0
   14.7875   -5.3625    0.0000 F   0  0  0  0  0  0  0  0  0  0  0  0
  3 14  2  0  0  0  0
  1  4  1  0  0  0  0
  2 15  1  0  0  0  0
  2  6  2  0  0  0  0
 11 16  1  0  0  0  0
  3  5  1  0  0  0  0
 16 17  1  0  0  0  0
  3  4  1  0  0  0  0
 17 18  1  0  0  0  0
  5  6  1  0  0  0  0
 17 19  2  0  0  0  0
 18 20  2  0  0  0  0
  7 12  1  0  0  0  0
  8  9  1  0  0  0  0
  9 10  2  0  0  0  0
 10 11  1  0  0  0  0
 18 24  1  0  0  0  0
 20 21  1  0  0  0  0
 21 22  2  0  0  0  0
 22 23  1  0  0  0  0
 23 24  2  0  0  0  0
 11 12  2  0  0  0  0
  5 25  1  0  0  0  0
  5  7  1  0  0  0  0
 22 26  1  0  0  0  0
  1  2  1  0  0  0  0
 26 27  1  0  0  0  0
  4 13  1  0  0  0  0
 26 28  1  0  0  0  0
  7  8  2  0  0  0  0
 26 29  1  0  0  0  0
M  END
> <MoleculeName>
CHEMBL1923295

> <pCHEMBL>
5.86

> <AssayDescription>
Inhibition of human recombinant BACE1 using fluorescent Mca-Ser-Glu-Val-Asn-Leu-Asp-Ala-Glu-Phe-Lys(Dnp)-OH peptide as substrate after 1 hr by spectroflurorimeter analysis

> <PubmedId>
22071305

> <DocumentType>
PUBLICATION

> <TargetName>
Beta-secretase 1

> <TargetChemblId>
CHEMBL4822

> <TargetOrganism>
Homo sapiens

> <TargetComponentGenes>
BACE1

> <PDB>
3u6a

> <Order>
494

> <spe_1>
-0.5654978

> <spe_2>
1.003986

> <Scaffold>
3

$$$$
