
  -OEChem-06092216122D

 29 31  0     1  0  0  0  0  0999 V2000
   18.2589   -8.7827    0.0000 C   0  0  3  0  0  0  0  0  0  0  0  0
   18.9646   -8.3700    0.0000 C   0  0  3  0  0  0  0  0  0  0  0  0
   18.9601   -7.5570    0.0000 C   0  0  3  0  0  0  0  0  0  0  0  0
   18.2514   -7.1505    0.0000 O   0  0  0  0  0  0  0  0  0  0  0  0
   17.5457   -7.5632    0.0000 C   0  0  0  0  0  0  0  0  0  0  0  0
   17.5486   -8.3824    0.0000 N   0  0  0  0  0  0  0  0  0  0  0  0
   12.6073   -7.9820    0.0000 C   0  0  0  0  0  0  0  0  0  0  0  0
   12.6061   -8.8016    0.0000 C   0  0  0  0  0  0  0  0  0  0  0  0
   13.3142   -9.2105    0.0000 C   0  0  0  0  0  0  0  0  0  0  0  0
   14.0238   -8.8011    0.0000 C   0  0  0  0  0  0  0  0  0  0  0  0
   14.0210   -7.9784    0.0000 N   0  0  0  0  0  0  0  0  0  0  0  0
   13.3124   -7.5732    0.0000 C   0  0  0  0  0  0  0  0  0  0  0  0
   14.7322   -9.2086    0.0000 C   0  0  0  0  0  0  0  0  0  0  0  0
   14.7335  -10.0258    0.0000 O   0  0  0  0  0  0  0  0  0  0  0  0
   15.4392   -8.7989    0.0000 N   0  0  0  0  0  0  0  0  0  0  0  0
   16.1476   -9.2063    0.0000 C   0  0  0  0  0  0  0  0  0  0  0  0
   16.1442  -10.0220    0.0000 C   0  0  0  0  0  0  0  0  0  0  0  0
   16.8518  -10.4294    0.0000 C   0  0  0  0  0  0  0  0  0  0  0  0
   17.5598  -10.0196    0.0000 C   0  0  0  0  0  0  0  0  0  0  0  0
   17.5559   -9.1982    0.0000 C   0  0  0  0  0  0  0  0  0  0  0  0
   16.8478   -8.7945    0.0000 C   0  0  0  0  0  0  0  0  0  0  0  0
   11.8961   -7.5718    0.0000 C   0  0  0  0  0  0  0  0  0  0  0  0
   11.1883   -7.1634    0.0000 N   0  0  0  0  0  0  0  0  0  0  0  0
   18.9713   -9.1910    0.0000 C   0  0  0  0  0  0  0  0  0  0  0  0
   16.8361   -7.1578    0.0000 N   0  0  0  0  0  0  0  0  0  0  0  0
   18.2687  -10.4262    0.0000 F   0  0  0  0  0  0  0  0  0  0  0  0
   19.6746   -8.7747    0.0000 F   0  0  0  0  0  0  0  0  0  0  0  0
   19.6661   -7.1454    0.0000 C   0  0  0  0  0  0  0  0  0  0  0  0
   19.6627   -6.3282    0.0000 F   0  0  0  0  0  0  0  0  0  0  0  0
  1  2  1  0  0  0  0
  1  6  1  0  0  0  0
  2  3  1  0  0  0  0
  3  4  1  0  0  0  0
  4  5  1  0  0  0  0
  5  6  2  0  0  0  0
  7  8  2  0  0  0  0
  8  9  1  0  0  0  0
  9 10  2  0  0  0  0
 10 11  1  0  0  0  0
 11 12  2  0  0  0  0
  7 12  1  0  0  0  0
 10 13  1  0  0  0  0
 13 14  2  0  0  0  0
 13 15  1  0  0  0  0
 15 16  1  0  0  0  0
 16 17  2  0  0  0  0
 17 18  1  0  0  0  0
 18 19  2  0  0  0  0
 19 20  1  0  0  0  0
 20 21  2  0  0  0  0
 16 21  1  0  0  0  0
 22 23  3  0  0  0  0
  7 22  1  0  0  0  0
  1 20  1  0  0  0  0
  1 24  1  6  0  0  0
  5 25  1  0  0  0  0
 19 26  1  0  0  0  0
  2 27  1  6  0  0  0
  3 28  1  1  0  0  0
 28 29  1  0  0  0  0
M  END
> <MoleculeName>
CHEMBL4228010

> <pCHEMBL>
6.92

> <AssayDescription>
Inhibition of recombinant human BACE1 (43 to 454 residues) expressed in Escherichia coli BL21(DE3) using Biotin-epsilon-amino-n-capronic acid-SEVNLDAEFRHDSGC-Eu after 3 hrs by HTRF assay

> <PubmedId>
29775538

> <DocumentType>
PUBLICATION

> <TargetName>
Beta-secretase 1

> <TargetChemblId>
CHEMBL4822

> <TargetOrganism>
Homo sapiens

> <TargetComponentGenes>
BACE1

> <PDB>
7d2x

> <Order>
942

> <spe_1>
0.3877563

> <spe_2>
-0.2219897

> <Scaffold>
6

$$$$
