
  -OEChem-06092216122D

 29 31  0     1  0  0  0  0  0999 V2000
   11.0114  -10.8546    0.0000 C   0  0  3  0  0  0  0  0  0  0  0  0
   11.7172  -10.4419    0.0000 C   0  0  0  0  0  0  0  0  0  0  0  0
   11.7127   -9.6288    0.0000 C   0  0  0  0  0  0  0  0  0  0  0  0
   11.0040   -9.2223    0.0000 O   0  0  0  0  0  0  0  0  0  0  0  0
   10.2983   -9.6351    0.0000 C   0  0  0  0  0  0  0  0  0  0  0  0
   10.3012  -10.4543    0.0000 N   0  0  0  0  0  0  0  0  0  0  0  0
    5.3599  -10.0539    0.0000 C   0  0  0  0  0  0  0  0  0  0  0  0
    5.3587  -10.8734    0.0000 N   0  0  0  0  0  0  0  0  0  0  0  0
    6.0668  -11.2824    0.0000 C   0  0  0  0  0  0  0  0  0  0  0  0
    6.7764  -10.8730    0.0000 C   0  0  0  0  0  0  0  0  0  0  0  0
    6.7736  -10.0503    0.0000 N   0  0  0  0  0  0  0  0  0  0  0  0
    6.0650   -9.6450    0.0000 C   0  0  0  0  0  0  0  0  0  0  0  0
    7.4848  -11.2804    0.0000 C   0  0  0  0  0  0  0  0  0  0  0  0
    7.4860  -12.0976    0.0000 O   0  0  0  0  0  0  0  0  0  0  0  0
    8.1918  -10.8707    0.0000 N   0  0  0  0  0  0  0  0  0  0  0  0
    8.9002  -11.2782    0.0000 C   0  0  0  0  0  0  0  0  0  0  0  0
    8.8968  -12.0939    0.0000 C   0  0  0  0  0  0  0  0  0  0  0  0
    9.6043  -12.5013    0.0000 C   0  0  0  0  0  0  0  0  0  0  0  0
   10.3124  -12.0915    0.0000 C   0  0  0  0  0  0  0  0  0  0  0  0
   10.3085  -11.2701    0.0000 C   0  0  0  0  0  0  0  0  0  0  0  0
    9.6004  -10.8664    0.0000 C   0  0  0  0  0  0  0  0  0  0  0  0
   11.0213  -12.4980    0.0000 F   0  0  0  0  0  0  0  0  0  0  0  0
    9.5887   -9.2297    0.0000 N   0  0  0  0  0  0  0  0  0  0  0  0
   11.7172  -11.2632    0.0000 C   0  0  0  0  0  0  0  0  0  0  0  0
   12.4187   -9.2173    0.0000 C   0  0  0  0  0  0  0  0  0  0  0  0
   13.1281   -9.6229    0.0000 F   0  0  0  0  0  0  0  0  0  0  0  0
    4.6520   -9.6455    0.0000 O   0  0  0  0  0  0  0  0  0  0  0  0
    3.9444  -10.0542    0.0000 C   0  0  0  0  0  0  0  0  0  0  0  0
    3.2366   -9.6458    0.0000 F   0  0  0  0  0  0  0  0  0  0  0  0
  1  2  1  0  0  0  0
  1  6  1  0  0  0  0
  2  3  2  0  0  0  0
  3  4  1  0  0  0  0
  4  5  1  0  0  0  0
  5  6  2  0  0  0  0
  7  8  2  0  0  0  0
  8  9  1  0  0  0  0
  9 10  2  0  0  0  0
 10 11  1  0  0  0  0
 11 12  2  0  0  0  0
  7 12  1  0  0  0  0
 10 13  1  0  0  0  0
 13 14  2  0  0  0  0
 13 15  1  0  0  0  0
 15 16  1  0  0  0  0
 16 17  2  0  0  0  0
 17 18  1  0  0  0  0
 18 19  2  0  0  0  0
 19 20  1  0  0  0  0
 20 21  2  0  0  0  0
 16 21  1  0  0  0  0
 19 22  1  0  0  0  0
  1 20  1  0  0  0  0
  5 23  1  0  0  0  0
  1 24  1  6  0  0  0
  3 25  1  0  0  0  0
 25 26  1  0  0  0  0
  7 27  1  0  0  0  0
 27 28  1  0  0  0  0
 28 29  1  0  0  0  0
M  END
> <MoleculeName>
CHEMBL4216758

> <pCHEMBL>
6.86

> <AssayDescription>
Inhibition of human recombinant BACE1 (43 to 545 residues) expressed in Escherichia coli BL21(DE3) using APP Swedish Lys-Met/Asn-Leu mutant as substrate incubated for 3 hrs by HTRF assay

> <PubmedId>
29733614

> <DocumentType>
PUBLICATION

> <TargetName>
Beta-secretase 1

> <TargetChemblId>
CHEMBL4822

> <TargetOrganism>
Homo sapiens

> <TargetComponentGenes>
BACE1

> <PDB>
7d2x

> <Order>
2033

> <spe_1>
0.700853

> <spe_2>
-0.6180602

> <Scaffold>
5

$$$$
