
  -OEChem-06092216122D

 32 34  0     1  0  0  0  0  0999 V2000
   31.5774  -16.7648    0.0000 F   0  0  0  0  0  0  0  0  0  0  0  0
   31.9901  -17.4747    0.0000 C   0  0  0  0  0  0  0  0  0  0  0  0
   32.3986  -16.7623    0.0000 F   0  0  0  0  0  0  0  0  0  0  0  0
   30.5869  -19.1132    0.0000 C   0  0  3  0  0  0  0  0  0  0  0  0
   31.2926  -18.7005    0.0000 C   0  0  3  0  0  0  0  0  0  0  0  0
   31.2881  -17.8874    0.0000 C   0  0  3  0  0  0  0  0  0  0  0  0
   30.5795  -17.4809    0.0000 O   0  0  0  0  0  0  0  0  0  0  0  0
   29.8737  -17.8936    0.0000 C   0  0  0  0  0  0  0  0  0  0  0  0
   29.8766  -18.7129    0.0000 N   0  0  0  0  0  0  0  0  0  0  0  0
   24.9353  -18.3125    0.0000 C   0  0  0  0  0  0  0  0  0  0  0  0
   24.9342  -19.1320    0.0000 N   0  0  0  0  0  0  0  0  0  0  0  0
   25.6422  -19.5410    0.0000 C   0  0  0  0  0  0  0  0  0  0  0  0
   26.3519  -19.1315    0.0000 C   0  0  0  0  0  0  0  0  0  0  0  0
   26.3490  -18.3089    0.0000 N   0  0  0  0  0  0  0  0  0  0  0  0
   25.6404  -17.9036    0.0000 C   0  0  0  0  0  0  0  0  0  0  0  0
   27.0602  -19.5390    0.0000 C   0  0  0  0  0  0  0  0  0  0  0  0
   27.0615  -20.3562    0.0000 O   0  0  0  0  0  0  0  0  0  0  0  0
   27.7673  -19.1293    0.0000 N   0  0  0  0  0  0  0  0  0  0  0  0
   28.4756  -19.5368    0.0000 C   0  0  0  0  0  0  0  0  0  0  0  0
   28.4723  -20.3524    0.0000 C   0  0  0  0  0  0  0  0  0  0  0  0
   29.1798  -20.7598    0.0000 C   0  0  0  0  0  0  0  0  0  0  0  0
   29.8878  -20.3501    0.0000 C   0  0  0  0  0  0  0  0  0  0  0  0
   29.8839  -19.5287    0.0000 C   0  0  0  0  0  0  0  0  0  0  0  0
   29.1758  -19.1250    0.0000 C   0  0  0  0  0  0  0  0  0  0  0  0
   31.2993  -19.5215    0.0000 C   0  0  0  0  0  0  0  0  0  0  0  0
   29.1641  -17.4883    0.0000 N   0  0  0  0  0  0  0  0  0  0  0  0
   30.5967  -20.7566    0.0000 F   0  0  0  0  0  0  0  0  0  0  0  0
   32.0026  -19.1051    0.0000 F   0  0  0  0  0  0  0  0  0  0  0  0
   24.2275  -17.9040    0.0000 O   0  0  0  0  0  0  0  0  0  0  0  0
   23.5199  -18.3128    0.0000 C   0  0  0  0  0  0  0  0  0  0  0  0
   22.8121  -17.9044    0.0000 F   0  0  0  0  0  0  0  0  0  0  0  0
   32.7035  -17.8815    0.0000 C   0  0  0  0  0  0  0  0  0  0  0  0
  1  2  1  0  0  0  0
  2  3  1  0  0  0  0
  4  5  1  0  0  0  0
  4  9  1  0  0  0  0
  5  6  1  0  0  0  0
  6  7  1  0  0  0  0
  7  8  1  0  0  0  0
  8  9  2  0  0  0  0
 10 11  2  0  0  0  0
 11 12  1  0  0  0  0
 12 13  2  0  0  0  0
 13 14  1  0  0  0  0
 14 15  2  0  0  0  0
 10 15  1  0  0  0  0
 13 16  1  0  0  0  0
 16 17  2  0  0  0  0
 16 18  1  0  0  0  0
 18 19  1  0  0  0  0
 19 20  2  0  0  0  0
 20 21  1  0  0  0  0
 21 22  2  0  0  0  0
 22 23  1  0  0  0  0
 23 24  2  0  0  0  0
 19 24  1  0  0  0  0
  4 23  1  0  0  0  0
  4 25  1  6  0  0  0
  8 26  1  0  0  0  0
 22 27  1  0  0  0  0
  5 28  1  6  0  0  0
  6  2  1  6  0  0  0
 10 29  1  0  0  0  0
 29 30  1  0  0  0  0
 30 31  1  0  0  0  0
  2 32  1  0  0  0  0
M  END
> <MoleculeName>
CHEMBL4226994

> <pCHEMBL>
8.06

> <AssayDescription>
Inhibition of recombinant human BACE1 (43 to 454 residues) expressed in Escherichia coli BL21(DE3) using Biotin-epsilon-amino-n-capronic acid-SEVNLDAEFRHDSGC-Eu after 3 hrs by HTRF assay

> <PubmedId>
29775538

> <DocumentType>
PUBLICATION

> <TargetName>
Beta-secretase 1

> <TargetChemblId>
CHEMBL4822

> <TargetOrganism>
Homo sapiens

> <TargetComponentGenes>
BACE1

> <PDB>
7d2x

> <Order>
1389

> <spe_1>
0.3009214

> <spe_2>
-0.7395052

> <Scaffold>
6

$$$$
