
  -OEChem-06092216122D

 40 45  0     1  0  0  0  0  0999 V2000
   -2.6166  -26.0535    0.0000 C   0  0  0  0  0  0  0  0  0  0  0  0
   -2.6177  -26.8811    0.0000 C   0  0  0  0  0  0  0  0  0  0  0  0
   -1.9027  -27.2941    0.0000 N   0  0  0  0  0  0  0  0  0  0  0  0
   -1.1861  -26.8806    0.0000 C   0  0  0  0  0  0  0  0  0  0  0  0
   -1.1889  -26.0499    0.0000 N   0  0  0  0  0  0  0  0  0  0  0  0
   -1.9045  -25.6407    0.0000 C   0  0  0  0  0  0  0  0  0  0  0  0
   -4.0442  -26.0572    0.0000 C   0  0  0  0  0  0  0  0  0  0  0  0
   -4.0454  -26.8847    0.0000 C   0  0  0  0  0  0  0  0  0  0  0  0
   -3.3303  -27.2977    0.0000 C   0  0  0  0  0  0  0  0  0  0  0  0
   -3.3321  -25.6443    0.0000 C   0  0  0  0  0  0  0  0  0  0  0  0
   -5.4669  -23.6090    0.0000 C   0  0  0  0  0  0  0  0  0  0  0  0
   -5.4681  -24.4366    0.0000 C   0  0  0  0  0  0  0  0  0  0  0  0
   -4.7531  -24.8497    0.0000 C   0  0  0  0  0  0  0  0  0  0  0  0
   -4.0364  -24.4361    0.0000 C   0  0  0  0  0  0  0  0  0  0  0  0
   -4.0393  -23.6054    0.0000 C   0  0  0  0  0  0  0  0  0  0  0  0
   -4.7549  -23.1962    0.0000 C   0  0  0  0  0  0  0  0  0  0  0  0
   -1.1162  -24.5092    0.0000 C   0  0  0  0  0  0  0  0  0  0  0  0
   -1.0988  -23.6677    0.0000 C   0  0  0  0  0  0  0  0  0  0  0  0
   -1.8139  -23.2342    0.0000 N   0  0  0  0  0  0  0  0  0  0  0  0
   -2.5548  -23.6375    0.0000 C   0  0  0  0  0  0  0  0  0  0  0  0
   -3.2741  -23.2040    0.0000 C   0  0  0  0  0  0  0  0  0  0  0  0
   -0.4372  -25.7164    0.0000 C   0  0  3  0  0  0  0  0  0  0  0  0
   -0.4125  -24.9395    0.0000 C   0  0  0  0  0  0  0  0  0  0  0  0
   -4.7592  -25.6337    0.0000 O   0  0  0  0  0  0  0  0  0  0  0  0
   -0.3756  -23.2702    0.0000 O   0  0  0  0  0  0  0  0  0  0  0  0
   -0.4707  -27.2921    0.0000 N   0  0  0  0  0  0  0  0  0  0  0  0
    0.2465  -26.1734    0.0000 C   0  0  0  0  0  0  0  0  0  0  0  0
   -1.7948  -22.4092    0.0000 C   0  0  0  0  0  0  0  0  0  0  0  0
   -1.0711  -22.0176    0.0000 C   0  0  0  0  0  0  0  0  0  0  0  0
   -1.0501  -21.1961    0.0000 C   0  0  0  0  0  0  0  0  0  0  0  0
   -1.7531  -20.7633    0.0000 C   0  0  0  0  0  0  0  0  0  0  0  0
   -2.4789  -21.1579    0.0000 C   0  0  0  0  0  0  0  0  0  0  0  0
   -2.5017  -21.9855    0.0000 C   0  0  0  0  0  0  0  0  0  0  0  0
    0.2538  -26.9926    0.0000 C   0  0  0  0  0  0  0  0  0  0  0  0
    0.9667  -27.3954    0.0000 C   0  0  0  0  0  0  0  0  0  0  0  0
    1.6765  -26.9793    0.0000 C   0  0  0  0  0  0  0  0  0  0  0  0
    1.6688  -26.1560    0.0000 C   0  0  0  0  0  0  0  0  0  0  0  0
    0.9513  -25.7488    0.0000 C   0  0  0  0  0  0  0  0  0  0  0  0
   -4.7604  -27.2968    0.0000 O   0  0  0  0  0  0  0  0  0  0  0  0
   -5.4747  -26.8836    0.0000 C   0  0  0  0  0  0  0  0  0  0  0  0
  2  3  1  0  0  0  0
  5  6  1  0  0  0  0
 17 18  1  0  0  0  0
 18 19  1  0  0  0  0
 19 20  1  0  0  0  0
 15 21  1  0  0  0  0
 20 21  1  0  0  0  0
  5 22  1  0  0  0  0
 17 23  1  0  0  0  0
 22 23  1  0  0  0  0
  7 24  1  0  0  0  0
 13 24  1  0  0  0  0
 11 12  2  0  0  0  0
 18 25  2  0  0  0  0
  1  6  1  0  0  0  0
  4 26  1  0  0  0  0
 12 13  1  0  0  0  0
 22 27  1  1  0  0  0
  1  2  2  0  0  0  0
 19 28  1  0  0  0  0
 28 29  1  0  0  0  0
 13 14  2  0  0  0  0
  3  4  2  0  0  0  0
 14 15  1  0  0  0  0
  7  8  1  0  0  0  0
 15 16  2  0  0  0  0
 28 33  1  0  0  0  0
 29 30  1  0  0  0  0
 30 31  1  0  0  0  0
 31 32  1  0  0  0  0
 32 33  1  0  0  0  0
 27 34  1  0  0  0  0
 11 16  1  0  0  0  0
  8  9  2  0  0  0  0
  2  9  1  0  0  0  0
  4  5  1  0  0  0  0
 27 38  1  0  0  0  0
 34 35  1  0  0  0  0
 35 36  1  0  0  0  0
 36 37  1  0  0  0  0
 37 38  1  0  0  0  0
  1 10  1  0  0  0  0
  8 39  1  0  0  0  0
  7 10  2  0  0  0  0
 39 40  1  0  0  0  0
M  END
> <MoleculeName>
CHEMBL1095430

> <pCHEMBL>
7.92

> <AssayDescription>
Inhibition of BACE1

> <PubmedId>
20399652

> <DocumentType>
PUBLICATION

> <TargetName>
Beta-secretase 1

> <TargetChemblId>
CHEMBL4822

> <TargetOrganism>
Homo sapiens

> <TargetComponentGenes>
BACE1

> <PDB>
2q15

> <Order>
63

> <spe_1>
-1.239102

> <spe_2>
-0.541081

> <Scaffold>
2

$$$$
