
  -OEChem-06092216122D

 35 39  0     1  0  0  0  0  0999 V2000
   -1.7065   -9.5407    0.0000 C   0  0  0  0  0  0  0  0  0  0  0  0
   -1.7077  -10.3676    0.0000 C   0  0  0  0  0  0  0  0  0  0  0  0
   -0.9933  -10.7803    0.0000 N   0  0  0  0  0  0  0  0  0  0  0  0
   -0.2772  -10.3671    0.0000 C   0  0  0  0  0  0  0  0  0  0  0  0
   -0.2801   -9.5371    0.0000 N   0  0  0  0  0  0  0  0  0  0  0  0
   -0.9951   -9.1282    0.0000 C   0  0  0  0  0  0  0  0  0  0  0  0
   -3.1330   -9.5444    0.0000 C   0  0  0  0  0  0  0  0  0  0  0  0
   -3.1341  -10.3712    0.0000 C   0  0  0  0  0  0  0  0  0  0  0  0
   -2.4197  -10.7839    0.0000 C   0  0  0  0  0  0  0  0  0  0  0  0
   -2.4215   -9.1318    0.0000 C   0  0  0  0  0  0  0  0  0  0  0  0
   -4.5544   -7.0983    0.0000 C   0  0  0  0  0  0  0  0  0  0  0  0
   -4.5555   -7.9252    0.0000 C   0  0  0  0  0  0  0  0  0  0  0  0
   -3.8411   -8.3379    0.0000 C   0  0  0  0  0  0  0  0  0  0  0  0
   -3.1252   -7.9247    0.0000 C   0  0  0  0  0  0  0  0  0  0  0  0
   -3.1281   -7.0947    0.0000 C   0  0  0  0  0  0  0  0  0  0  0  0
   -3.8429   -6.6859    0.0000 C   0  0  0  0  0  0  0  0  0  0  0  0
   -0.2075   -7.9977    0.0000 C   0  0  0  0  0  0  0  0  0  0  0  0
   -0.1901   -7.1570    0.0000 C   0  0  0  0  0  0  0  0  0  0  0  0
   -0.9046   -6.7238    0.0000 N   0  0  0  0  0  0  0  0  0  0  0  0
   -1.6448   -7.1268    0.0000 C   0  0  0  0  0  0  0  0  0  0  0  0
   -2.3635   -6.6937    0.0000 C   0  0  0  0  0  0  0  0  0  0  0  0
    0.4709   -9.2039    0.0000 C   0  0  3  0  0  0  0  0  0  0  0  0
    0.4956   -8.4276    0.0000 C   0  0  0  0  0  0  0  0  0  0  0  0
   -3.8472   -9.1212    0.0000 O   0  0  0  0  0  0  0  0  0  0  0  0
    0.5325   -6.7598    0.0000 O   0  0  0  0  0  0  0  0  0  0  0  0
    0.4374  -10.7783    0.0000 N   0  0  0  0  0  0  0  0  0  0  0  0
    1.1540   -9.6605    0.0000 C   0  0  0  0  0  0  0  0  0  0  0  0
    1.1817  -10.4855    0.0000 C   0  0  0  0  0  0  0  0  0  0  0  0
    1.8506   -9.2219    0.0000 C   0  0  0  0  0  0  0  0  0  0  0  0
   -0.8855   -5.8995    0.0000 C   0  0  0  0  0  0  0  0  0  0  0  0
   -0.1605   -5.5021    0.0000 C   0  0  0  0  0  0  0  0  0  0  0  0
   -0.1395   -4.6814    0.0000 C   0  0  0  0  0  0  0  0  0  0  0  0
   -0.8419   -4.2489    0.0000 C   0  0  0  0  0  0  0  0  0  0  0  0
   -1.5671   -4.6432    0.0000 C   0  0  0  0  0  0  0  0  0  0  0  0
   -1.5900   -5.4701    0.0000 C   0  0  0  0  0  0  0  0  0  0  0  0
  8  9  2  0  0  0  0
  2  9  1  0  0  0  0
  4  5  1  0  0  0  0
  1 10  1  0  0  0  0
  7 10  2  0  0  0  0
  2  3  1  0  0  0  0
  5  6  1  0  0  0  0
 17 18  1  0  0  0  0
 18 19  1  0  0  0  0
 19 20  1  0  0  0  0
 15 21  1  0  0  0  0
 20 21  1  0  0  0  0
  5 22  1  0  0  0  0
 17 23  1  0  0  0  0
 22 23  1  0  0  0  0
  7 24  1  0  0  0  0
 13 24  1  0  0  0  0
 11 12  2  0  0  0  0
 18 25  2  0  0  0  0
  1  6  1  0  0  0  0
  4 26  1  0  0  0  0
 27 28  1  0  0  0  0
 12 13  1  0  0  0  0
  1  2  2  0  0  0  0
 13 14  2  0  0  0  0
 27 29  1  0  0  0  0
 22 27  1  1  0  0  0
  3  4  2  0  0  0  0
 19 30  1  0  0  0  0
 30 31  1  0  0  0  0
 14 15  1  0  0  0  0
  7  8  1  0  0  0  0
 15 16  2  0  0  0  0
 11 16  1  0  0  0  0
 30 35  1  0  0  0  0
 31 32  1  0  0  0  0
 32 33  1  0  0  0  0
 33 34  1  0  0  0  0
 34 35  1  0  0  0  0
M  END
> <MoleculeName>
CHEMBL1098082

> <pCHEMBL>
8.1

> <AssayDescription>
Inhibition of BACE1

> <PubmedId>
20399652

> <DocumentType>
PUBLICATION

> <TargetName>
Beta-secretase 1

> <TargetChemblId>
CHEMBL4822

> <TargetOrganism>
Homo sapiens

> <TargetComponentGenes>
BACE1

> <PDB>
2q15

> <Order>
2002

> <spe_1>
-1.409832

> <spe_2>
-0.2634291

> <Scaffold>
2

$$$$
